759
  CCTOOLS-1219251125

129135  0  0  1  0  0  0  0  0999 V2000
  -12.8120    5.6760    1.8110 C   0  0  0  0  0
  -14.2300    5.2940    1.4720 C   0  0  0  0  0
  -15.2300    6.1460    1.5240 N   0  0  0  0  0
  -16.4020    5.7020    1.2100 C   0  0  0  0  0
  -16.3190    4.0470    0.7940 S   0  0  0  0  0
  -14.5810    4.0500    1.0830 C   0  0  0  0  0
  -13.6700    2.8950    0.9290 C   0  0  0  0  0
  -13.7260    2.1060   -0.2200 C   0  0  0  0  0
  -12.8730    1.0310   -0.3570 C   0  0  0  0  0
  -12.7470    2.5930    1.9310 C   0  0  0  0  0
  -11.8990    1.5150    1.7820 C   0  0  0  0  0
  -11.9640    0.7330    0.6420 C   0  0  0  0  0
  -11.0350   -0.4430    0.4860 C   0  0  0  0  0
   -9.8000   -0.0070   -0.1710 N   0  0  0  0  0
   -8.8170   -0.8960   -0.4160 C   0  0  0  0  0
   -8.9550   -2.0570   -0.0930 O   0  0  0  0  0
   -7.5470   -0.4480   -1.0920 C   0  0  0  0  0
   -7.8660    0.1010   -2.4990 C   0  0  0  0  0
   -7.5750   -1.1140   -3.4190 C   0  0  0  0  0
   -7.2200   -0.6850   -4.7360 O   0  0  0  0  0
   -6.3650   -1.7640   -2.7030 C   0  0  0  0  0
   -6.6410   -1.5930   -1.2650 N   0  0  0  0  0
   -6.1450   -2.3590   -0.2730 C   0  0  0  0  0
   -6.5030   -2.1750    0.8720 O   0  0  0  0  0
   -5.1470   -3.4430   -0.5860 C   0  0  0  0  0
   -5.8680   -4.7900   -0.6760 C   0  0  0  0  0
   -7.0130   -4.6880   -1.6860 C   0  0  0  0  0
   -4.8820   -5.8670   -1.1310 C   0  0  0  0  0
   -6.4310   -5.1600    0.6970 C   0  0  0  0  0
   -4.1390   -3.5000    0.4750 N   0  0  0  0  0
   -2.9120   -3.9930    0.2140 C   0  0  0  0  0
   -2.6430   -4.3900   -0.9000 O   0  0  0  0  0
   -1.8750   -4.0510    1.3050 C   0  0  0  0  0
   -0.6660   -4.6090    0.7850 O   0  0  0  0  0
    0.3880   -4.7090    1.7440 C   0  0  0  0  0
    1.6260   -5.3160    1.0810 C   0  0  0  0  0
    2.1130   -4.4240    0.0750 O   0  0  0  0  0
    3.2740   -4.8990   -0.6090 C   0  0  0  0  0
    3.7040   -3.8700   -1.6570 C   0  0  0  0  0
    4.1160   -2.6680   -1.0030 O   0  0  0  0  0
    4.5400   -1.6360   -1.8960 C   0  0  0  0  0
    4.9560   -0.4040   -1.0900 C   0  0  0  0  0
    6.1350   -0.7240   -0.2800 N   0  0  0  0  0
    6.6810    0.2160    0.5160 C   0  0  0  0  0
    6.1980    1.3270    0.5620 O   0  0  0  0  0
    7.8930   -0.1140    1.3480 C   0  0  0  0  0
    8.3090    1.1180    2.1540 C   0  0  0  0  0
    8.7440    2.1770    1.2400 N   0  0  0  0  0
    9.4480    0.7590    3.0710 C   0  0  0  0  0
    9.4790    0.8260    4.3710 N   0  0  0  0  0
   10.6340    0.4470    4.7990 N   0  0  0  0  0
   11.3970    0.1150    3.7880 C   0  0  0  0  0
   12.8200   -0.3770    3.8600 C   0  0  0  0  0
   10.6600    0.2960    2.6660 N   0  0  0  0  0
   11.0140    0.0610    1.3360 C   0  0  0  0  0
   12.0620   -1.1770    0.8070 S   0  0  0  0  0
   11.8540   -0.7450   -0.8790 C   0  0  0  0  0
   12.5030   -1.4610   -2.0340 C   0  0  0  0  0
   11.0470    0.2960   -0.9970 C   0  0  0  0  0
   10.6700    0.8970   -2.3270 C   0  0  0  0  0
   10.5570    0.8090    0.2710 C   0  0  0  0  0
    9.7050    2.0090    0.3890 C   0  0  0  0  0
    9.9730    3.1210   -0.5520 C   0  0  0  0  0
   11.2810    3.5550   -0.7660 C   0  0  0  0  0
   11.5260    4.5910   -1.6440 C   0  0  0  0  0
   10.4760    5.2000   -2.3110 C   0  0  0  0  0
   10.7910    6.5030   -3.4130 CL  0  0  0  0  0
    9.1750    4.7720   -2.1010 C   0  0  0  0  0
    8.9200    3.7340   -1.2300 C   0  0  0  0  0
  -12.6560    5.5760    2.8850 H   0  0  0  0  0
  -12.1220    5.0190    1.2810 H   0  0  0  0  0
  -12.6320    6.7090    1.5120 H   0  0  0  0  0
  -17.3050    6.2940    1.2110 H   0  0  0  0  0
  -14.4350    2.3370   -1.0010 H   0  0  0  0  0
  -12.9150    0.4190   -1.2470 H   0  0  0  0  0
  -12.6960    3.2030    2.8220 H   0  0  0  0  0
  -11.1840    1.2800    2.5570 H   0  0  0  0  0
  -10.7990   -0.8530    1.4680 H   0  0  0  0  0
  -11.5180   -1.2090   -0.1210 H   0  0  0  0  0
   -9.6900    0.9210   -0.4290 H   0  0  0  0  0
   -7.0620    0.3240   -0.4940 H   0  0  0  0  0
   -8.9130    0.3960   -2.5690 H   0  0  0  0  0
   -7.2120    0.9370   -2.7440 H   0  0  0  0  0
   -8.4250   -1.7950   -3.4480 H   0  0  0  0  0
   -7.0290   -1.4100   -5.3470 H   0  0  0  0  0
   -6.3000   -2.8230   -2.9530 H   0  0  0  0  0
   -5.4420   -1.2510   -2.9750 H   0  0  0  0  0
   -4.6610   -3.2270   -1.5370 H   0  0  0  0  0
   -6.6050   -4.5360   -2.6850 H   0  0  0  0  0
   -7.5960   -5.6090   -1.6680 H   0  0  0  0  0
   -7.6550   -3.8470   -1.4240 H   0  0  0  0  0
   -4.0660   -5.9390   -0.4120 H   0  0  0  0  0
   -5.3950   -6.8260   -1.1950 H   0  0  0  0  0
   -4.4810   -5.6030   -2.1100 H   0  0  0  0  0
   -7.1340   -4.3930    1.0210 H   0  0  0  0  0
   -6.9440   -6.1190    0.6330 H   0  0  0  0  0
   -5.6150   -5.2330    1.4170 H   0  0  0  0  0
   -4.3540   -3.1820    1.3660 H   0  0  0  0  0
   -1.6800   -3.0450    1.6760 H   0  0  0  0  0
   -2.2400   -4.6740    2.1210 H   0  0  0  0  0
    0.6290   -3.7160    2.1240 H   0  0  0  0  0
    0.0690   -5.3450    2.5690 H   0  0  0  0  0
    2.4000   -5.4740    1.8310 H   0  0  0  0  0
    1.3620   -6.2690    0.6230 H   0  0  0  0  0
    4.0820   -5.0490    0.1060 H   0  0  0  0  0
    3.0440   -5.8440   -1.1020 H   0  0  0  0  0
    4.5350   -4.2700   -2.2390 H   0  0  0  0  0
    2.8660   -3.6540   -2.3200 H   0  0  0  0  0
    5.3880   -1.9900   -2.4830 H   0  0  0  0  0
    3.7200   -1.3740   -2.5630 H   0  0  0  0  0
    5.1950    0.4120   -1.7720 H   0  0  0  0  0
    4.1370   -0.1040   -0.4370 H   0  0  0  0  0
    6.5210   -1.6130   -0.3180 H   0  0  0  0  0
    7.6550   -0.9300    2.0300 H   0  0  0  0  0
    8.7120   -0.4140    0.6950 H   0  0  0  0  0
    7.4630    1.4710    2.7430 H   0  0  0  0  0
   12.8260   -1.4630    3.9410 H   0  0  0  0  0
   13.3540   -0.0770    2.9580 H   0  0  0  0  0
   13.3100    0.0560    4.7320 H   0  0  0  0  0
   13.1150   -2.2800   -1.6560 H   0  0  0  0  0
   11.7320   -1.8590   -2.6950 H   0  0  0  0  0
   13.1310   -0.7640   -2.5880 H   0  0  0  0  0
    9.7620    0.4210   -2.6960 H   0  0  0  0  0
   10.4970    1.9660   -2.2060 H   0  0  0  0  0
   11.4800    0.7380   -3.0390 H   0  0  0  0  0
   12.1010    3.0820   -0.2470 H   0  0  0  0  0
   12.5380    4.9280   -1.8110 H   0  0  0  0  0
    8.3600    5.2500   -2.6240 H   0  0  0  0  0
    7.9060    3.3980   -1.0700 H   0  0  0  0  0
  1  2  1  0  0  0
  1 70  1  0  0  0
  1 71  1  0  0  0
  1 72  1  0  0  0
  2  3  1  0  0  0
  2  6  2  0  0  0
  3  4  2  0  0  0
  4  5  1  0  0  0
  4 73  1  0  0  0
  5  6  1  0  0  0
  6  7  1  0  0  0
  7  8  2  0  0  0
  7 10  1  0  0  0
  8  9  1  0  0  0
  8 74  1  0  0  0
  9 12  2  0  0  0
  9 75  1  0  0  0
 10 11  2  0  0  0
 10 76  1  0  0  0
 11 12  1  0  0  0
 11 77  1  0  0  0
 12 13  1  0  0  0
 13 14  1  0  0  0
 13 78  1  0  0  0
 13 79  1  0  0  0
 14 15  1  0  0  0
 14 80  1  0  0  0
 15 16  2  0  0  0
 15 17  1  0  0  0
 17 18  1  0  0  0
 17 22  1  0  0  0
 17 81  1  0  0  0
 18 19  1  0  0  0
 18 82  1  0  0  0
 18 83  1  0  0  0
 19 20  1  0  0  0
 19 21  1  0  0  0
 19 84  1  0  0  0
 20 85  1  0  0  0
 21 22  1  0  0  0
 21 86  1  0  0  0
 21 87  1  0  0  0
 22 23  1  0  0  0
 23 24  2  0  0  0
 23 25  1  0  0  0
 25 26  1  0  0  0
 25 30  1  0  0  0
 25 88  1  0  0  0
 26 27  1  0  0  0
 26 28  1  0  0  0
 26 29  1  0  0  0
 27 89  1  0  0  0
 27 90  1  0  0  0
 27 91  1  0  0  0
 28 92  1  0  0  0
 28 93  1  0  0  0
 28 94  1  0  0  0
 29 95  1  0  0  0
 29 96  1  0  0  0
 29 97  1  0  0  0
 30 31  1  0  0  0
 30 98  1  0  0  0
 31 32  2  0  0  0
 31 33  1  0  0  0
 33 34  1  0  0  0
 33 99  1  0  0  0
 33100  1  0  0  0
 34 35  1  0  0  0
 35 36  1  0  0  0
 35101  1  0  0  0
 35102  1  0  0  0
 36 37  1  0  0  0
 36103  1  0  0  0
 36104  1  0  0  0
 37 38  1  0  0  0
 38 39  1  0  0  0
 38105  1  0  0  0
 38106  1  0  0  0
 39 40  1  0  0  0
 39107  1  0  0  0
 39108  1  0  0  0
 40 41  1  0  0  0
 41 42  1  0  0  0
 41109  1  0  0  0
 41110  1  0  0  0
 42 43  1  0  0  0
 42111  1  0  0  0
 42112  1  0  0  0
 43 44  1  0  0  0
 43113  1  0  0  0
 44 45  2  0  0  0
 44 46  1  0  0  0
 46 47  1  0  0  0
 46114  1  0  0  0
 46115  1  0  0  0
 47 48  1  0  0  0
 47 49  1  0  0  0
 47116  1  0  0  0
 48 62  2  0  0  0
 49 50  2  0  0  0
 49 54  1  0  0  0
 50 51  1  0  0  0
 51 52  2  0  0  0
 52 53  1  0  0  0
 52 54  1  0  0  0
 53117  1  0  0  0
 53118  1  0  0  0
 53119  1  0  0  0
 54 55  1  0  0  0
 55 56  1  0  0  0
 55 61  2  0  0  0
 56 57  1  0  0  0
 57 58  1  0  0  0
 57 59  2  0  0  0
 58120  1  0  0  0
 58121  1  0  0  0
 58122  1  0  0  0
 59 60  1  0  0  0
 59 61  1  0  0  0
 60123  1  0  0  0
 60124  1  0  0  0
 60125  1  0  0  0
 61 62  1  0  0  0
 62 63  1  0  0  0
 63 64  2  0  0  0
 63 69  1  0  0  0
 64 65  1  0  0  0
 64126  1  0  0  0
 65 66  2  0  0  0
 65127  1  0  0  0
 66 67  1  0  0  0
 66 68  1  0  0  0
 68 69  2  0  0  0
 68128  1  0  0  0
 69129  1  0  0  0
M  END
$$$$
