G22ba5a08d1e8
     RDKit          3D

 21 22  0  0  0  0  0  0  0  0999 V2000
    5.8276   -2.3281   18.9767 C   0  0  0  0  0  0  0  0  0  0  0  0
    5.6433   -0.9700   19.1516 C   0  0  0  0  0  0  0  0  0  0  0  0
    6.0989   -0.3240   17.9626 C   0  0  0  0  0  0  0  0  0  0  0  0
    6.5316   -1.3436   17.1421 C   0  0  0  0  0  0  0  0  0  0  0  0
    6.3724   -2.5485   17.7425 O   0  0  0  0  0  0  0  0  0  0  0  0
    5.5737   -3.5112   19.7947 C   0  0  0  0  0  0  0  0  0  0  0  0
    5.0182   -3.3910   21.0718 C   0  0  0  0  0  0  0  0  0  0  0  0
    4.7936   -4.5400   21.8146 C   0  0  0  0  0  0  0  0  0  0  0  0
    5.0800   -5.7835   21.3797 N   0  0  0  0  0  0  0  0  0  0  0  0
    5.6153   -5.8830   20.1459 C   0  0  0  0  0  0  0  0  0  0  0  0
    5.8762   -4.7945   19.3293 C   0  0  0  0  0  0  0  0  0  0  0  0
    6.1127    1.1239   17.6570 C   0  0  0  0  0  0  0  0  0  0  0  0
    7.3698    1.5781   17.4236 F   0  0  0  0  0  0  0  0  0  0  0  0
    5.3768    1.4139   16.5546 F   0  0  0  0  0  0  0  0  0  0  0  0
    5.6077    1.8675   18.6747 F   0  0  0  0  0  0  0  0  0  0  0  0
    5.2237   -0.4780   20.0415 H   0  0  0  0  0  0  0  0  0  0  0  0
    6.9500   -1.1990   16.1351 H   0  0  0  0  0  0  0  0  0  0  0  0
    4.7637   -2.4020   21.4803 H   0  0  0  0  0  0  0  0  0  0  0  0
    4.3561   -4.4304   22.8179 H   0  0  0  0  0  0  0  0  0  0  0  0
    5.8587   -6.8861   19.7660 H   0  0  0  0  0  0  0  0  0  0  0  0
    6.3146   -4.9377   18.3307 H   0  0  0  0  0  0  0  0  0  0  0  0
  1  2  2  0
  2  3  1  0
  3  4  2  0
  4  5  1  0
  5  1  1  0
  6  7  2  0
  7  8  1  0
  8  9  2  0
  9 10  1  0
 10 11  2  0
 11  6  1  0
  1  6  1  0
 12 13  1  0
 12 14  1  0
 12 15  1  0
  3 12  1  0
  2 16  1  0
  4 17  1  0
  7 18  1  0
  8 19  1  0
 10 20  1  0
 11 21  1  0
M  END
>  <canonical_smiles>  (1) 
FC(F)(F)c1coc(-c2ccncc2)c1

>  <geometry_score>  (1) 
19.943935167998664

>  <evidence>  (1) 
generated graph and model pose, not experimentally validated

$$$$
