G4f89a311a414
     RDKit          3D

 25 26  0  0  0  0  0  0  0  0999 V2000
    6.1978   -1.4408   19.3832 C   0  0  0  0  0  0  0  0  0  0  0  0
    7.2797   -1.6669   20.1551 N   0  0  0  0  0  0  0  0  0  0  0  0
    7.1792   -2.6608   21.0590 C   0  0  0  0  0  0  0  0  0  0  0  0
    6.0504   -3.4336   21.2305 C   0  0  0  0  0  0  0  0  0  0  0  0
    5.0055   -3.1238   20.3861 C   0  0  0  0  0  0  0  0  0  0  0  0
    5.0492   -2.1420   19.4646 N   0  0  0  0  0  0  0  0  0  0  0  0
    6.2764   -0.3587   18.3846 C   0  0  0  0  0  0  0  0  0  0  0  0
    7.4346    0.4190   18.2335 C   0  0  0  0  0  0  0  0  0  0  0  0
    7.4621    1.4258   17.2810 C   0  0  0  0  0  0  0  0  0  0  0  0
    6.4273    1.7181   16.4683 N   0  0  0  0  0  0  0  0  0  0  0  0
    5.3167    0.9688   16.6168 C   0  0  0  0  0  0  0  0  0  0  0  0
    5.1966   -0.0578   17.5407 C   0  0  0  0  0  0  0  0  0  0  0  0
    5.9771   -4.5433   22.2310 C   0  0  0  0  0  0  0  0  0  0  0  0
    6.4407   -5.8683   21.6452 C   0  0  0  0  0  0  0  0  0  0  0  0
    8.0499   -2.8682   21.6985 H   0  0  0  0  0  0  0  0  0  0  0  0
    4.0808   -3.7136   20.4698 H   0  0  0  0  0  0  0  0  0  0  0  0
    8.3144    0.2309   18.8663 H   0  0  0  0  0  0  0  0  0  0  0  0
    8.3821    2.0208   17.1827 H   0  0  0  0  0  0  0  0  0  0  0  0
    4.4556    1.1844   15.9672 H   0  0  0  0  0  0  0  0  0  0  0  0
    4.2613   -0.6324   17.6116 H   0  0  0  0  0  0  0  0  0  0  0  0
    4.9356   -4.6490   22.5687 H   0  0  0  0  0  0  0  0  0  0  0  0
    6.6428   -4.2902   23.0693 H   0  0  0  0  0  0  0  0  0  0  0  0
    6.6843   -6.5647   22.4611 H   0  0  0  0  0  0  0  0  0  0  0  0
    5.6387   -6.2959   21.0254 H   0  0  0  0  0  0  0  0  0  0  0  0
    7.3342   -5.7027   21.0254 H   0  0  0  0  0  0  0  0  0  0  0  0
  1  2  2  0
  2  3  1  0
  3  4  2  0
  4  5  1  0
  5  6  2  0
  6  1  1  0
  7  8  2  0
  8  9  1  0
  9 10  2  0
 10 11  1  0
 11 12  2  0
 12  7  1  0
  1  7  1  0
 13 14  1  0
  4 13  1  0
  3 15  1  0
  5 16  1  0
  8 17  1  0
  9 18  1  0
 11 19  1  0
 12 20  1  0
 13 21  1  0
 13 22  1  0
 14 23  1  0
 14 24  1  0
 14 25  1  0
M  END
>  <canonical_smiles>  (1) 
CCc1cnc(-c2ccncc2)nc1

>  <geometry_score>  (1) 
20.276424700587107

>  <evidence>  (1) 
generated graph and model pose, not experimentally validated

$$$$
