G6a5ddca468ad
     RDKit          3D

 24 25  0  0  0  0  0  0  0  0999 V2000
    7.3361   -3.9074   21.4734 C   0  0  0  0  0  0  0  0  0  0  0  0
    6.0947   -4.5210   21.3958 C   0  0  0  0  0  0  0  0  0  0  0  0
    5.1211   -3.9122   20.6251 C   0  0  0  0  0  0  0  0  0  0  0  0
    5.3060   -2.7619   19.9430 N   0  0  0  0  0  0  0  0  0  0  0  0
    6.5250   -2.1690   20.0116 C   0  0  0  0  0  0  0  0  0  0  0  0
    7.5524   -2.7190   20.7752 C   0  0  0  0  0  0  0  0  0  0  0  0
    8.4132   -4.3558   22.1879 O   0  0  0  0  0  0  0  0  0  0  0  0
    8.2409   -5.5605   22.9249 C   0  0  0  0  0  0  0  0  0  0  0  0
    6.6707   -0.9175   19.2386 C   0  0  0  0  0  0  0  0  0  0  0  0
    5.5576   -0.1048   18.9759 C   0  0  0  0  0  0  0  0  0  0  0  0
    5.7188    1.0656   18.2510 C   0  0  0  0  0  0  0  0  0  0  0  0
    6.9025    1.4889   17.7648 N   0  0  0  0  0  0  0  0  0  0  0  0
    7.9667    0.6991   18.0087 C   0  0  0  0  0  0  0  0  0  0  0  0
    7.9028   -0.4883   18.7247 C   0  0  0  0  0  0  0  0  0  0  0  0
    5.8913   -5.4610   21.9296 H   0  0  0  0  0  0  0  0  0  0  0  0
    4.1347   -4.3952   20.5640 H   0  0  0  0  0  0  0  0  0  0  0  0
    8.5304   -2.2182   20.8275 H   0  0  0  0  0  0  0  0  0  0  0  0
    8.2725   -5.3391   24.0019 H   0  0  0  0  0  0  0  0  0  0  0  0
    7.2693   -6.0097   22.6713 H   0  0  0  0  0  0  0  0  0  0  0  0
    9.0475   -6.2640   22.6713 H   0  0  0  0  0  0  0  0  0  0  0  0
    4.5623   -0.3949   19.3434 H   0  0  0  0  0  0  0  0  0  0  0  0
    4.8295    1.6847   18.0616 H   0  0  0  0  0  0  0  0  0  0  0  0
    8.9449    1.0144   17.6169 H   0  0  0  0  0  0  0  0  0  0  0  0
    8.8108   -1.0874   18.8876 H   0  0  0  0  0  0  0  0  0  0  0  0
  1  2  2  0
  2  3  1  0
  3  4  2  0
  4  5  1  0
  5  6  2  0
  6  1  1  0
  7  8  1  0
  1  7  1  0
  9 10  2  0
 10 11  1  0
 11 12  2  0
 12 13  1  0
 13 14  2  0
 14  9  1  0
  5  9  1  0
  2 15  1  0
  3 16  1  0
  6 17  1  0
  8 18  1  0
  8 19  1  0
  8 20  1  0
 10 21  1  0
 11 22  1  0
 13 23  1  0
 14 24  1  0
M  END
>  <canonical_smiles>  (1) 
COc1ccnc(-c2ccncc2)c1

>  <geometry_score>  (1) 
18.22327247763531

>  <evidence>  (1) 
generated graph and model pose, not experimentally validated

$$$$
