G709a91d564ab
     RDKit          3D

 26 27  0  0  0  0  0  0  0  0999 V2000
    5.9138   -4.7175   20.7529 C   0  0  0  0  0  0  0  0  0  0  0  0
    5.2918   -4.8974   21.9619 C   0  0  0  0  0  0  0  0  0  0  0  0
    5.5187   -6.2107   22.5153 C   0  0  0  0  0  0  0  0  0  0  0  0
    6.3225   -6.9509   21.6633 C   0  0  0  0  0  0  0  0  0  0  0  0
    6.7785   -6.0883   20.2544 S   0  0  0  0  0  0  0  0  0  0  0  0
    5.9857   -3.6657   19.8714 N   0  0  0  0  0  0  0  0  0  0  0  0
    5.3285   -2.4680   20.0657 C   0  0  0  0  0  0  0  0  0  0  0  0
    4.5595   -2.1982   20.9808 O   0  0  0  0  0  0  0  0  0  0  0  0
    5.5716   -1.4364   19.0209 C   0  0  0  0  0  0  0  0  0  0  0  0
    4.5388   -0.5490   18.7163 C   0  0  0  0  0  0  0  0  0  0  0  0
    4.7698    0.4079   17.7469 C   0  0  0  0  0  0  0  0  0  0  0  0
    5.9406    0.5338   17.0856 N   0  0  0  0  0  0  0  0  0  0  0  0
    6.9308   -0.3208   17.4180 C   0  0  0  0  0  0  0  0  0  0  0  0
    6.8009   -1.3154   18.3712 C   0  0  0  0  0  0  0  0  0  0  0  0
    4.9671   -6.6568   23.7933 C   0  0  0  0  0  0  0  0  0  0  0  0
    4.2902   -5.9358   24.5185 O   0  0  0  0  0  0  0  0  0  0  0  0
    5.2309   -7.9415   24.1727 N   0  0  0  0  0  0  0  0  0  0  0  0
    4.6855   -4.1242   22.4563 H   0  0  0  0  0  0  0  0  0  0  0  0
    6.6354   -7.9851   21.8698 H   0  0  0  0  0  0  0  0  0  0  0  0
    6.5591   -3.7770   19.0230 H   0  0  0  0  0  0  0  0  0  0  0  0
    3.5695   -0.6094   19.2327 H   0  0  0  0  0  0  0  0  0  0  0  0
    3.9557    1.1053   17.5002 H   0  0  0  0  0  0  0  0  0  0  0  0
    7.8968   -0.2210   16.9014 H   0  0  0  0  0  0  0  0  0  0  0  0
    7.6382   -1.9879   18.6089 H   0  0  0  0  0  0  0  0  0  0  0  0
    5.7990   -8.5510   23.5671 H   0  0  0  0  0  0  0  0  0  0  0  0
    4.8619   -8.3012   25.0645 H   0  0  0  0  0  0  0  0  0  0  0  0
  1  2  2  0
  2  3  1  0
  3  4  2  0
  4  5  1  0
  5  1  1  0
  6  7  1  0
  7  8  2  0
  7  9  1  0
  9 10  2  0
 10 11  1  0
 11 12  2  0
 12 13  1  0
 13 14  2  0
 14  9  1  0
  1  6  1  0
 15 16  2  0
 15 17  1  0
  3 15  1  0
  2 18  1  0
  4 19  1  0
  6 20  1  0
 10 21  1  0
 11 22  1  0
 13 23  1  0
 14 24  1  0
 17 25  1  0
 17 26  1  0
M  END
>  <canonical_smiles>  (1) 
NC(=O)c1csc(NC(=O)c2ccncc2)c1

>  <geometry_score>  (1) 
19.00206775047149

>  <evidence>  (1) 
generated graph and model pose, not experimentally validated

$$$$
