G8dd21474cb48
     RDKit          3D

 19 19  0  0  0  0  0  0  0  0999 V2000
    7.6386    1.5435   19.7968 C   0  0  0  0  0  0  0  0  0  0  0  0
    8.1139    0.3275   19.3057 C   0  0  0  0  0  0  0  0  0  0  0  0
    7.3589   -0.3867   18.3780 C   0  0  0  0  0  0  0  0  0  0  0  0
    6.1332    0.0859   17.9253 C   0  0  0  0  0  0  0  0  0  0  0  0
    5.6499    1.2975   18.4086 C   0  0  0  0  0  0  0  0  0  0  0  0
    6.4004    2.0220   19.3402 C   0  0  0  0  0  0  0  0  0  0  0  0
    8.3271    2.3394   20.7362 N   0  0  0  0  0  0  0  0  0  0  0  0
    9.5521    2.0765   21.3237 C   0  0  0  0  0  0  0  0  0  0  0  0
   10.2673    1.1001   21.1355 O   0  0  0  0  0  0  0  0  0  0  0  0
    9.9617    3.1674   22.2810 C   0  0  0  0  0  0  0  0  0  0  0  0
    7.8216   -1.5540   17.9106 F   0  0  0  0  0  0  0  0  0  0  0  0
    9.0816   -0.0662   19.6498 H   0  0  0  0  0  0  0  0  0  0  0  0
    5.5510   -0.4920   17.1924 H   0  0  0  0  0  0  0  0  0  0  0  0
    4.6811    1.6843   18.0594 H   0  0  0  0  0  0  0  0  0  0  0  0
    6.0152    2.9797   19.7203 H   0  0  0  0  0  0  0  0  0  0  0  0
    7.8654    3.2164   21.0167 H   0  0  0  0  0  0  0  0  0  0  0  0
    9.8298    2.8163   23.3151 H   0  0  0  0  0  0  0  0  0  0  0  0
   11.0178    3.4251   22.1131 H   0  0  0  0  0  0  0  0  0  0  0  0
    9.3362    4.0565   22.1131 H   0  0  0  0  0  0  0  0  0  0  0  0
  1  2  1  0
  2  3  2  0
  3  4  1  0
  4  5  2  0
  5  6  1  0
  6  1  2  0
  7  8  1  0
  8  9  2  0
  8 10  1  0
  1  7  1  0
  3 11  1  0
  2 12  1  0
  4 13  1  0
  5 14  1  0
  6 15  1  0
  7 16  1  0
 10 17  1  0
 10 18  1  0
 10 19  1  0
M  END
>  <canonical_smiles>  (1) 
CC(=O)Nc1cccc(F)c1

>  <geometry_score>  (1) 
18.06107528054582

>  <evidence>  (1) 
generated graph and model pose, not experimentally validated

$$$$
