Ga51e2049e205
     RDKit          3D

 26 27  0  0  0  0  0  0  0  0999 V2000
    5.9018   -2.2219   19.6718 C   0  0  0  0  0  0  0  0  0  0  0  0
    6.4507   -1.1866   20.4200 C   0  0  0  0  0  0  0  0  0  0  0  0
    6.8323    0.0099   19.7949 C   0  0  0  0  0  0  0  0  0  0  0  0
    6.6790    0.2166   18.4124 C   0  0  0  0  0  0  0  0  0  0  0  0
    6.1170   -0.8432   17.6827 C   0  0  0  0  0  0  0  0  0  0  0  0
    5.7337   -2.0398   18.3005 C   0  0  0  0  0  0  0  0  0  0  0  0
    5.4820   -3.4335   20.1409 O   0  0  0  0  0  0  0  0  0  0  0  0
    5.7308   -3.7679   21.5050 C   0  0  0  0  0  0  0  0  0  0  0  0
    4.5841   -3.3118   22.3903 C   0  0  0  0  0  0  0  0  0  0  0  0
    7.1107    1.5328   17.7918 C   0  0  0  0  0  0  0  0  0  0  0  0
    7.7082    1.5873   16.4065 C   0  0  0  0  0  0  0  0  0  0  0  0
    6.3377    2.1511   16.6519 C   0  0  0  0  0  0  0  0  0  0  0  0
    6.5862   -1.3060   21.5050 H   0  0  0  0  0  0  0  0  0  0  0  0
    7.2664    0.8141   20.4072 H   0  0  0  0  0  0  0  0  0  0  0  0
    5.9743   -0.7305   16.5978 H   0  0  0  0  0  0  0  0  0  0  0  0
    5.2942   -2.8465   17.6955 H   0  0  0  0  0  0  0  0  0  0  0  0
    5.8435   -4.8584   21.5942 H   0  0  0  0  0  0  0  0  0  0  0  0
    6.6508   -3.2599   21.8302 H   0  0  0  0  0  0  0  0  0  0  0  0
    4.8690   -3.4251   23.4467 H   0  0  0  0  0  0  0  0  0  0  0  0
    4.3584   -2.2554   22.1827 H   0  0  0  0  0  0  0  0  0  0  0  0
    3.6945   -3.9245   22.1827 H   0  0  0  0  0  0  0  0  0  0  0  0
    7.4275    1.8661   18.7911 H   0  0  0  0  0  0  0  0  0  0  0  0
    8.5510    2.2626   16.1976 H   0  0  0  0  0  0  0  0  0  0  0  0
    8.1300    0.8452   15.7127 H   0  0  0  0  0  0  0  0  0  0  0  0
    6.1778    3.2390   16.6227 H   0  0  0  0  0  0  0  0  0  0  0  0
    5.3421    1.9923   16.2120 H   0  0  0  0  0  0  0  0  0  0  0  0
  1  2  1  0
  2  3  2  0
  3  4  1  0
  4  5  2  0
  5  6  1  0
  6  1  2  0
  7  8  1  0
  8  9  1  0
  1  7  1  0
 10 11  1  0
 11 12  1  0
 12 10  1  0
  4 10  1  0
  2 13  1  0
  3 14  1  0
  5 15  1  0
  6 16  1  0
  8 17  1  0
  8 18  1  0
  9 19  1  0
  9 20  1  0
  9 21  1  0
 10 22  1  0
 11 23  1  0
 11 24  1  0
 12 25  1  0
 12 26  1  0
M  END
>  <canonical_smiles>  (1) 
CCOc1ccc(C2CC2)cc1

>  <geometry_score>  (1) 
19.09296977667731

>  <evidence>  (1) 
generated graph and model pose, not experimentally validated

$$$$
