Gba525cdaf090
     RDKit          3D

 27 27  0  0  0  0  0  0  0  0999 V2000
    6.0485   -1.3849   18.9254 C   0  0  0  0  0  0  0  0  0  0  0  0
    5.6608   -1.3540   20.2697 C   0  0  0  0  0  0  0  0  0  0  0  0
    5.4979   -2.5506   20.9761 C   0  0  0  0  0  0  0  0  0  0  0  0
    5.7354   -3.7846   20.3540 C   0  0  0  0  0  0  0  0  0  0  0  0
    6.1265   -3.8139   19.0103 C   0  0  0  0  0  0  0  0  0  0  0  0
    6.2895   -2.6174   18.3032 C   0  0  0  0  0  0  0  0  0  0  0  0
    6.2401   -0.1442   18.1263 C   0  0  0  0  0  0  0  0  0  0  0  0
    7.0164   -0.1339   17.1767 O   0  0  0  0  0  0  0  0  0  0  0  0
    5.4758    0.9466   18.4754 N   0  0  0  0  0  0  0  0  0  0  0  0
    5.6157    2.2400   17.8189 C   0  0  0  0  0  0  0  0  0  0  0  0
    5.1002    2.2443   16.3752 C   0  0  0  0  0  0  0  0  0  0  0  0
    6.0598    1.7180   15.4640 O   0  0  0  0  0  0  0  0  0  0  0  0
    5.5409   -5.0211   21.1585 C   0  0  0  0  0  0  0  0  0  0  0  0
    4.8553   -5.0189   22.1734 O   0  0  0  0  0  0  0  0  0  0  0  0
    6.1749   -6.1586   20.7467 N   0  0  0  0  0  0  0  0  0  0  0  0
    5.4844   -0.3905   20.7702 H   0  0  0  0  0  0  0  0  0  0  0  0
    5.1806   -2.5231   22.0290 H   0  0  0  0  0  0  0  0  0  0  0  0
    6.3057   -4.7772   18.5104 H   0  0  0  0  0  0  0  0  0  0  0  0
    6.6093   -2.6444   17.2511 H   0  0  0  0  0  0  0  0  0  0  0  0
    4.7798    0.8447   19.2278 H   0  0  0  0  0  0  0  0  0  0  0  0
    5.0495    2.9871   18.3943 H   0  0  0  0  0  0  0  0  0  0  0  0
    6.6901    2.4733   17.7826 H   0  0  0  0  0  0  0  0  0  0  0  0
    4.1875    1.6326   16.3223 H   0  0  0  0  0  0  0  0  0  0  0  0
    4.8977    3.2873   16.0901 H   0  0  0  0  0  0  0  0  0  0  0  0
    6.8057    1.3088   15.9701 H   0  0  0  0  0  0  0  0  0  0  0  0
    6.7487   -6.1476   19.8914 H   0  0  0  0  0  0  0  0  0  0  0  0
    6.0793   -7.0274   21.2916 H   0  0  0  0  0  0  0  0  0  0  0  0
  1  2  1  0
  2  3  2  0
  3  4  1  0
  4  5  2  0
  5  6  1  0
  6  1  2  0
  7  8  2  0
  7  9  1  0
  9 10  1  0
 10 11  1  0
 11 12  1  0
  1  7  1  0
 13 14  2  0
 13 15  1  0
  4 13  1  0
  2 16  1  0
  3 17  1  0
  5 18  1  0
  6 19  1  0
  9 20  1  0
 10 21  1  0
 10 22  1  0
 11 23  1  0
 11 24  1  0
 12 25  1  0
 15 26  1  0
 15 27  1  0
M  END
>  <canonical_smiles>  (1) 
NC(=O)c1ccc(C(=O)NCCO)cc1

>  <geometry_score>  (1) 
19.152009852172963

>  <evidence>  (1) 
generated graph and model pose, not experimentally validated

$$$$
