Gc02d8e978085
     RDKit          3D

 22 23  0  0  0  0  0  0  0  0999 V2000
    6.1243   -3.2375   21.2362 C   0  0  0  0  0  0  0  0  0  0  0  0
    5.5342   -4.4725   21.0822 C   0  0  0  0  0  0  0  0  0  0  0  0
    5.7406   -5.1617   22.2981 C   0  0  0  0  0  0  0  0  0  0  0  0
    6.4406   -4.3092   23.1158 C   0  0  0  0  0  0  0  0  0  0  0  0
    6.6790   -3.1331   22.4761 O   0  0  0  0  0  0  0  0  0  0  0  0
    6.2738   -2.1271   20.4486 N   0  0  0  0  0  0  0  0  0  0  0  0
    5.7766   -2.0535   19.1641 C   0  0  0  0  0  0  0  0  0  0  0  0
    5.1604   -2.9542   18.6002 O   0  0  0  0  0  0  0  0  0  0  0  0
    6.0122   -0.7773   18.4141 C   0  0  0  0  0  0  0  0  0  0  0  0
    5.5114   -0.6949   17.1097 C   0  0  0  0  0  0  0  0  0  0  0  0
    5.7128    0.4697   16.3922 C   0  0  0  0  0  0  0  0  0  0  0  0
    6.3698    1.5407   16.8805 N   0  0  0  0  0  0  0  0  0  0  0  0
    6.8452    1.4438   18.1383 C   0  0  0  0  0  0  0  0  0  0  0  0
    6.6961    0.3218   18.9389 C   0  0  0  0  0  0  0  0  0  0  0  0
    5.2144   -6.7329   22.6478 Cl  0  0  0  0  0  0  0  0  0  0  0  0
    5.0081   -4.8469   20.1916 H   0  0  0  0  0  0  0  0  0  0  0  0
    6.7624   -4.5439   24.1412 H   0  0  0  0  0  0  0  0  0  0  0  0
    6.7779   -1.3143   20.8309 H   0  0  0  0  0  0  0  0  0  0  0  0
    4.9678   -1.5408   16.6638 H   0  0  0  0  0  0  0  0  0  0  0  0
    5.3156    0.5253   15.3679 H   0  0  0  0  0  0  0  0  0  0  0  0
    7.3843    2.3075   18.5547 H   0  0  0  0  0  0  0  0  0  0  0  0
    7.1052    0.2977   19.9597 H   0  0  0  0  0  0  0  0  0  0  0  0
  1  2  2  0
  2  3  1  0
  3  4  2  0
  4  5  1  0
  5  1  1  0
  6  7  1  0
  7  8  2  0
  7  9  1  0
  9 10  2  0
 10 11  1  0
 11 12  2  0
 12 13  1  0
 13 14  2  0
 14  9  1  0
  1  6  1  0
  3 15  1  0
  2 16  1  0
  4 17  1  0
  6 18  1  0
 10 19  1  0
 11 20  1  0
 13 21  1  0
 14 22  1  0
M  END
>  <canonical_smiles>  (1) 
O=C(Nc1cc(Cl)co1)c1ccncc1

>  <geometry_score>  (1) 
19.873175114661247

>  <evidence>  (1) 
generated graph and model pose, not experimentally validated

$$$$
