Gcc601569829e
     RDKit          3D

 23 24  0  0  0  0  0  0  0  0999 V2000
    5.8999   -1.6403   19.5286 C   0  0  0  0  0  0  0  0  0  0  0  0
    5.5815   -2.8817   19.0231 C   0  0  0  0  0  0  0  0  0  0  0  0
    5.5700   -3.7531   20.1315 C   0  0  0  0  0  0  0  0  0  0  0  0
    5.8652   -3.0048   21.2415 C   0  0  0  0  0  0  0  0  0  0  0  0
    6.0730   -1.7096   20.8792 O   0  0  0  0  0  0  0  0  0  0  0  0
    6.0719   -0.3953   18.9914 N   0  0  0  0  0  0  0  0  0  0  0  0
    5.9381   -0.1343   17.6461 C   0  0  0  0  0  0  0  0  0  0  0  0
    5.6710   -0.9467   16.7665 O   0  0  0  0  0  0  0  0  0  0  0  0
    6.1894    1.3153   17.3192 C   0  0  0  0  0  0  0  0  0  0  0  0
    5.2528   -5.2598   20.1054 C   0  0  0  0  0  0  0  0  0  0  0  0
    6.0200   -6.1560   19.1686 C   0  0  0  0  0  0  0  0  0  0  0  0
    6.2656   -6.2349   20.6465 C   0  0  0  0  0  0  0  0  0  0  0  0
    5.3785   -3.1394   17.9731 H   0  0  0  0  0  0  0  0  0  0  0  0
    5.9250   -3.3925   22.2692 H   0  0  0  0  0  0  0  0  0  0  0  0
    6.3125    0.3830   19.6216 H   0  0  0  0  0  0  0  0  0  0  0  0
    6.2890    1.8896   18.2521 H   0  0  0  0  0  0  0  0  0  0  0  0
    7.1163    1.4037   16.7335 H   0  0  0  0  0  0  0  0  0  0  0  0
    5.3464    1.7105   16.7335 H   0  0  0  0  0  0  0  0  0  0  0  0
    4.1881   -5.0574   20.2939 H   0  0  0  0  0  0  0  0  0  0  0  0
    5.5060   -6.9800   18.6521 H   0  0  0  0  0  0  0  0  0  0  0  0
    6.6527   -5.9951   18.2833 H   0  0  0  0  0  0  0  0  0  0  0  0
    5.9314   -7.1167   21.2129 H   0  0  0  0  0  0  0  0  0  0  0  0
    7.1526   -6.1557   21.2922 H   0  0  0  0  0  0  0  0  0  0  0  0
  1  2  2  0
  2  3  1  0
  3  4  2  0
  4  5  1  0
  5  1  1  0
  6  7  1  0
  7  8  2  0
  7  9  1  0
  1  6  1  0
 10 11  1  0
 11 12  1  0
 12 10  1  0
  3 10  1  0
  2 13  1  0
  4 14  1  0
  6 15  1  0
  9 16  1  0
  9 17  1  0
  9 18  1  0
 10 19  1  0
 11 20  1  0
 11 21  1  0
 12 22  1  0
 12 23  1  0
M  END
>  <canonical_smiles>  (1) 
CC(=O)Nc1cc(C2CC2)co1

>  <geometry_score>  (1) 
19.882249770700152

>  <evidence>  (1) 
generated graph and model pose, not experimentally validated

$$$$
