Gd30e711e2851
     RDKit          3D

 18 18  0  0  0  0  0  0  0  0999 V2000
    5.5659   -0.6513   18.6436 C   0  0  0  0  0  0  0  0  0  0  0  0
    5.0374   -1.2324   19.7431 N   0  0  0  0  0  0  0  0  0  0  0  0
    5.0681   -2.5816   19.7323 C   0  0  0  0  0  0  0  0  0  0  0  0
    5.5963   -3.3198   18.6951 C   0  0  0  0  0  0  0  0  0  0  0  0
    6.1136   -2.6118   17.6306 C   0  0  0  0  0  0  0  0  0  0  0  0
    6.1233   -1.2622   17.5656 N   0  0  0  0  0  0  0  0  0  0  0  0
    5.5594    1.1586   18.5993 S   0  0  0  0  0  0  0  0  0  0  0  0
    4.2966    1.5730   18.0211 O   0  0  0  0  0  0  0  0  0  0  0  0
    6.0324    1.6661   19.8719 O   0  0  0  0  0  0  0  0  0  0  0  0
    6.7613    1.5379   17.4301 N   0  0  0  0  0  0  0  0  0  0  0  0
    8.1514    1.3636   17.8722 C   0  0  0  0  0  0  0  0  0  0  0  0
    5.6099   -4.6563   18.7198 F   0  0  0  0  0  0  0  0  0  0  0  0
    4.6500   -3.1199   20.5957 H   0  0  0  0  0  0  0  0  0  0  0  0
    6.5414   -3.1763   16.7890 H   0  0  0  0  0  0  0  0  0  0  0  0
    6.6103    0.9313   16.6115 H   0  0  0  0  0  0  0  0  0  0  0  0
    8.1887    1.3589   18.9715 H   0  0  0  0  0  0  0  0  0  0  0  0
    8.5414    0.4095   17.4880 H   0  0  0  0  0  0  0  0  0  0  0  0
    8.7649    2.1919   17.4880 H   0  0  0  0  0  0  0  0  0  0  0  0
  1  2  2  0
  2  3  1  0
  3  4  2  0
  4  5  1  0
  5  6  2  0
  6  1  1  0
  7  8  2  0
  7  9  2  0
  7 10  1  0
 10 11  1  0
  1  7  1  0
  4 12  1  0
  3 13  1  0
  5 14  1  0
 10 15  1  0
 11 16  1  0
 11 17  1  0
 11 18  1  0
M  END
>  <canonical_smiles>  (1) 
CNS(=O)(=O)c1ncc(F)cn1

>  <geometry_score>  (1) 
20.669833162550738

>  <evidence>  (1) 
generated graph and model pose, not experimentally validated

$$$$
