Gee92616c2c03
     RDKit          3D

 20 21  0  0  0  0  0  0  0  0999 V2000
    5.5020   -2.8958   19.7557 C   0  0  0  0  0  0  0  0  0  0  0  0
    5.5176   -2.6788   18.4222 N   0  0  0  0  0  0  0  0  0  0  0  0
    5.4627   -1.3906   18.0149 C   0  0  0  0  0  0  0  0  0  0  0  0
    5.3936   -0.3216   18.8757 C   0  0  0  0  0  0  0  0  0  0  0  0
    5.3830   -0.6429   20.2117 C   0  0  0  0  0  0  0  0  0  0  0  0
    5.4357   -1.9109   20.6783 N   0  0  0  0  0  0  0  0  0  0  0  0
    5.5608   -4.2925   20.2332 C   0  0  0  0  0  0  0  0  0  0  0  0
    5.5489   -4.6021   21.6076 C   0  0  0  0  0  0  0  0  0  0  0  0
    5.6045   -5.9241   22.0619 C   0  0  0  0  0  0  0  0  0  0  0  0
    5.6736   -6.9719   21.1493 C   0  0  0  0  0  0  0  0  0  0  0  0
    5.6871   -6.6990   19.7851 C   0  0  0  0  0  0  0  0  0  0  0  0
    5.6313   -5.3756   19.3350 C   0  0  0  0  0  0  0  0  0  0  0  0
    5.3255    1.2940   18.3233 Cl  0  0  0  0  0  0  0  0  0  0  0  0
    5.4740   -1.1869   16.9340 H   0  0  0  0  0  0  0  0  0  0  0  0
    5.3286    0.1774   20.9426 H   0  0  0  0  0  0  0  0  0  0  0  0
    5.4945   -3.7844   22.3414 H   0  0  0  0  0  0  0  0  0  0  0  0
    5.5936   -6.1352   23.1414 H   0  0  0  0  0  0  0  0  0  0  0  0
    5.7174   -8.0119   21.5048 H   0  0  0  0  0  0  0  0  0  0  0  0
    5.7417   -7.5243   19.0600 H   0  0  0  0  0  0  0  0  0  0  0  0
    5.6428   -5.1757   18.2533 H   0  0  0  0  0  0  0  0  0  0  0  0
  1  2  2  0
  2  3  1  0
  3  4  2  0
  4  5  1  0
  5  6  2  0
  6  1  1  0
  7  8  2  0
  8  9  1  0
  9 10  2  0
 10 11  1  0
 11 12  2  0
 12  7  1  0
  1  7  1  0
  4 13  1  0
  3 14  1  0
  5 15  1  0
  8 16  1  0
  9 17  1  0
 10 18  1  0
 11 19  1  0
 12 20  1  0
M  END
>  <canonical_smiles>  (1) 
Clc1cnc(-c2ccccc2)nc1

>  <geometry_score>  (1) 
18.551347933367676

>  <evidence>  (1) 
generated graph and model pose, not experimentally validated

$$$$
