Gef6fca66ca7f
     RDKit          3D

 26 26  0  0  0  0  0  0  0  0999 V2000
    6.5487   -2.3700   20.5515 C   0  0  0  0  0  0  0  0  0  0  0  0
    5.6433   -3.3621   20.6584 N   0  0  0  0  0  0  0  0  0  0  0  0
    6.0270   -4.4506   21.3548 C   0  0  0  0  0  0  0  0  0  0  0  0
    7.2725   -4.5981   21.9268 C   0  0  0  0  0  0  0  0  0  0  0  0
    8.1167   -3.5216   21.7594 C   0  0  0  0  0  0  0  0  0  0  0  0
    7.7872   -2.4092   21.0749 N   0  0  0  0  0  0  0  0  0  0  0  0
    6.1561   -1.1554   19.7609 C   0  0  0  0  0  0  0  0  0  0  0  0
    6.4320   -1.3825   18.2791 C   0  0  0  0  0  0  0  0  0  0  0  0
    5.9162   -0.3070   17.4468 N   0  0  0  0  0  0  0  0  0  0  0  0
    6.5852    0.8857   17.3008 C   0  0  0  0  0  0  0  0  0  0  0  0
    7.6355    1.1538   17.8724 O   0  0  0  0  0  0  0  0  0  0  0  0
    5.8870    1.8648   16.3969 C   0  0  0  0  0  0  0  0  0  0  0  0
    7.6528   -5.7981   22.7217 C   0  0  0  0  0  0  0  0  0  0  0  0
    5.3029   -5.2701   21.4737 H   0  0  0  0  0  0  0  0  0  0  0  0
    9.1183   -3.5739   22.2112 H   0  0  0  0  0  0  0  0  0  0  0  0
    6.7379   -0.2899   20.1108 H   0  0  0  0  0  0  0  0  0  0  0  0
    5.0817   -0.9661   19.9020 H   0  0  0  0  0  0  0  0  0  0  0  0
    7.5194   -1.4544   18.1295 H   0  0  0  0  0  0  0  0  0  0  0  0
    5.9215   -2.3104   17.9818 H   0  0  0  0  0  0  0  0  0  0  0  0
    5.0232   -0.4427   16.9518 H   0  0  0  0  0  0  0  0  0  0  0  0
    5.3550    2.6107   17.0056 H   0  0  0  0  0  0  0  0  0  0  0  0
    6.6289    2.3712   15.7621 H   0  0  0  0  0  0  0  0  0  0  0  0
    5.1665    1.3282   15.7621 H   0  0  0  0  0  0  0  0  0  0  0  0
    7.5792   -5.5658   23.7943 H   0  0  0  0  0  0  0  0  0  0  0  0
    6.9740   -6.6289   22.4790 H   0  0  0  0  0  0  0  0  0  0  0  0
    8.6863   -6.0862   22.4790 H   0  0  0  0  0  0  0  0  0  0  0  0
  1  2  2  0
  2  3  1  0
  3  4  2  0
  4  5  1  0
  5  6  2  0
  6  1  1  0
  7  8  1  0
  8  9  1  0
  9 10  1  0
 10 11  2  0
 10 12  1  0
  1  7  1  0
  4 13  1  0
  3 14  1  0
  5 15  1  0
  7 16  1  0
  7 17  1  0
  8 18  1  0
  8 19  1  0
  9 20  1  0
 12 21  1  0
 12 22  1  0
 12 23  1  0
 13 24  1  0
 13 25  1  0
 13 26  1  0
M  END
>  <canonical_smiles>  (1) 
CC(=O)NCCc1ncc(C)cn1

>  <geometry_score>  (1) 
19.684187063966924

>  <evidence>  (1) 
generated graph and model pose, not experimentally validated

$$$$
