
     RDKit          3D

 67 70  0  0  0  0  0  0  0  0999 V2000
    0.3900    2.0062    1.0617 C   0  0  0  0  0  0  0  0  0  0  0  0
   -0.3735    1.1883   -1.2514 C   0  0  1  0  0  0  0  0  0  0  0  0
   -1.7159    0.4053   -1.1387 C   0  0  0  0  0  0  0  0  0  0  0  0
   -3.0347   -1.1766    0.2496 C   0  0  1  0  0  0  0  0  0  0  0  0
   -2.7151   -2.3552    1.1836 C   0  0  0  0  0  0  0  0  0  0  0  0
   -3.9149   -2.8311    2.0062 C   0  0  0  0  0  0  0  0  0  0  0  0
   -5.2351   -2.5563    1.3011 C   0  0  0  0  0  0  0  0  0  0  0  0
   -5.4410   -1.0628    1.0451 C   0  0  0  0  0  0  0  0  0  0  0  0
   -4.1364   -0.2901    0.8361 C   0  0  0  0  0  0  0  0  0  0  0  0
   -0.4013    2.5719   -1.9010 C   0  0  0  0  0  0  0  0  0  0  0  0
   -1.5681    3.2713   -2.2260 C   0  0  0  0  0  0  0  0  0  0  0  0
   -1.4912    4.5219   -2.8353 C   0  0  0  0  0  0  0  0  0  0  0  0
   -0.2405    5.0436   -3.1102 C   0  0  0  0  0  0  0  0  0  0  0  0
    0.8047    3.1928   -2.2350 C   0  0  0  0  0  0  0  0  0  0  0  0
    1.6264    0.1949   -0.1164 C   0  0  0  0  0  0  0  0  0  0  0  0
    1.4875   -1.0455   -0.7541 C   0  0  0  0  0  0  0  0  0  0  0  0
    2.5580   -1.9472   -0.8455 C   0  0  0  0  0  0  0  0  0  0  0  0
    3.8198   -1.6509   -0.3072 C   0  0  0  0  0  0  0  0  0  0  0  0
    4.9724   -2.6617   -0.4240 C   0  0  2  0  0  0  0  0  0  0  0  0
    6.2940   -2.1782    0.2149 C   0  0  0  0  0  0  0  0  0  0  0  0
    5.2634   -2.9481   -1.9131 C   0  0  0  0  0  0  0  0  0  0  0  0
    4.5802   -3.9791    0.2791 C   0  0  0  0  0  0  0  0  0  0  0  0
    3.9567   -0.4105    0.3271 C   0  0  0  0  0  0  0  0  0  0  0  0
    2.8832    0.4907    0.4201 C   0  0  0  0  0  0  0  0  0  0  0  0
   -0.8230    2.8285    1.1842 C   0  0  0  0  0  0  0  0  0  0  0  0
   -0.8964    4.0532    1.8238 C   0  0  0  0  0  0  0  0  0  0  0  0
   -2.8891    3.4299    1.1329 C   0  0  0  0  0  0  0  0  0  0  0  0
    0.5141    1.1219   -0.0397 N   0  0  0  0  0  0  0  0  0  0  0  0
   -1.8250   -0.4179   -0.0280 N   0  0  0  0  0  0  0  0  0  0  0  0
    0.9124    4.4076   -2.8223 N   0  0  0  0  0  0  0  0  0  0  0  0
   -2.2072    4.4294    1.7625 N   0  0  0  0  0  0  0  0  0  0  0  0
   -2.0882    2.4508    0.7784 N   0  0  0  0  0  0  0  0  0  0  0  0
    1.2240    2.0900    1.9636 O   0  0  0  0  0  0  0  0  0  0  0  0
   -2.5671    0.4048   -2.0294 O   0  0  0  0  0  0  0  0  0  0  0  0
    0.1189    0.5783   -2.0230 H   0  0  0  0  0  0  0  0  0  0  0  0
   -3.4156   -1.5743   -0.7026 H   0  0  0  0  0  0  0  0  0  0  0  0
   -2.3580   -3.1965    0.5715 H   0  0  0  0  0  0  0  0  0  0  0  0
   -1.9554   -2.0033    1.8971 H   0  0  0  0  0  0  0  0  0  0  0  0
   -3.8218   -3.9139    2.1762 H   0  0  0  0  0  0  0  0  0  0  0  0
   -3.9160   -2.2774    2.9567 H   0  0  0  0  0  0  0  0  0  0  0  0
   -5.2417   -3.0872    0.3377 H   0  0  0  0  0  0  0  0  0  0  0  0
   -6.0500   -2.9077    1.9511 H   0  0  0  0  0  0  0  0  0  0  0  0
   -6.0616   -0.9469    0.1443 H   0  0  0  0  0  0  0  0  0  0  0  0
   -5.9221   -0.6457    1.9420 H   0  0  0  0  0  0  0  0  0  0  0  0
   -4.3249    0.5458    0.1463 H   0  0  0  0  0  0  0  0  0  0  0  0
   -3.7952    0.0737    1.8165 H   0  0  0  0  0  0  0  0  0  0  0  0
   -2.5509    2.8321   -1.9995 H   0  0  0  0  0  0  0  0  0  0  0  0
   -2.4033    5.0808   -3.0914 H   0  0  0  0  0  0  0  0  0  0  0  0
   -0.1833    6.0317   -3.5902 H   0  0  0  0  0  0  0  0  0  0  0  0
    1.7357    2.6546   -2.0037 H   0  0  0  0  0  0  0  0  0  0  0  0
    0.5165   -1.3181   -1.1931 H   0  0  0  0  0  0  0  0  0  0  0  0
    2.4046   -2.9115   -1.3520 H   0  0  0  0  0  0  0  0  0  0  0  0
    6.2048   -2.2108    1.3108 H   0  0  0  0  0  0  0  0  0  0  0  0
    7.1174   -2.8333   -0.1057 H   0  0  0  0  0  0  0  0  0  0  0  0
    6.5002   -1.1464   -0.1057 H   0  0  0  0  0  0  0  0  0  0  0  0
    6.0452   -3.7178   -1.9925 H   0  0  0  0  0  0  0  0  0  0  0  0
    4.3460   -3.3053   -2.4038 H   0  0  0  0  0  0  0  0  0  0  0  0
    5.6061   -2.0252   -2.4038 H   0  0  0  0  0  0  0  0  0  0  0  0
    4.6218   -3.8393    1.3694 H   0  0  0  0  0  0  0  0  0  0  0  0
    3.5589   -4.2620   -0.0156 H   0  0  0  0  0  0  0  0  0  0  0  0
    5.2805   -4.7746   -0.0156 H   0  0  0  0  0  0  0  0  0  0  0  0
    4.9283   -0.1350    0.7631 H   0  0  0  0  0  0  0  0  0  0  0  0
    3.0353    1.4544    0.9283 H   0  0  0  0  0  0  0  0  0  0  0  0
   -0.0682    4.6097    2.2867 H   0  0  0  0  0  0  0  0  0  0  0  0
   -3.9729    3.4420    0.9456 H   0  0  0  0  0  0  0  0  0  0  0  0
   -1.0269   -0.4943    0.6186 H   0  0  0  0  0  0  0  0  0  0  0  0
   -2.6075    5.3065    2.1249 H   0  0  0  0  0  0  0  0  0  0  0  0
  3  2  1  0
  5  4  1  0
  6  5  1  0
  7  6  1  0
  8  7  1  0
  9  8  1  0
  9  4  1  0
 10  2  1  0
 11 10  1  0
 12 11  2  0
 13 12  1  0
 14 10  2  0
 16 15  1  0
 17 16  2  0
 18 17  1  0
 19 18  1  0
 19 20  1  1
 21 19  1  0
 22 19  1  0
 23 18  2  0
 24 23  1  0
 24 15  2  0
 25  1  1  0
 26 25  2  0
 28 15  1  0
 28  1  1  0
 28  2  1  0
 29  4  1  0
 29  3  1  0
 30 14  1  0
 30 13  2  0
 31 27  1  0
 31 26  1  0
 32 27  2  0
 32 25  1  0
 33  1  2  0
 34  3  2  0
  2 35  1  6
  4 36  1  6
  5 37  1  0
  5 38  1  0
  6 39  1  0
  6 40  1  0
  7 41  1  0
  7 42  1  0
  8 43  1  0
  8 44  1  0
  9 45  1  0
  9 46  1  0
 11 47  1  0
 12 48  1  0
 13 49  1  0
 14 50  1  0
 16 51  1  0
 17 52  1  0
 20 53  1  0
 20 54  1  0
 20 55  1  0
 21 56  1  0
 21 57  1  0
 21 58  1  0
 22 59  1  0
 22 60  1  0
 22 61  1  0
 23 62  1  0
 24 63  1  0
 26 64  1  0
 27 65  1  0
 29 66  1  0
 31 67  1  0
M  END
$$$$
