X77_redock_20261022_pose
     RDKit          3D

 67 70  0  0  0  0  0  0  0  0999 V2000
  -20.4310   13.3740  -29.1670 C   0  0  0  0  0  0  0  0  0  0  0  0
  -21.6350   14.3120  -28.9170 C   0  0  0  0  0  0  0  0  0  0  0  0
  -22.5200   14.2650  -30.1820 C   0  0  0  0  0  0  0  0  0  0  0  0
  -22.4250   13.7340  -27.7230 C   0  0  0  0  0  0  0  0  0  0  0  0
  -21.2370   15.7660  -28.6180 C   0  0  0  0  0  0  0  0  0  0  0  0
  -22.1710   16.6600  -28.0700 C   0  0  0  0  0  0  0  0  0  0  0  0
  -21.8370   17.9910  -27.7850 C   0  0  0  0  0  0  0  0  0  0  0  0
  -20.5520   18.4950  -28.0330 C   0  0  0  0  0  0  0  0  0  0  0  0
  -20.2250   19.8780  -27.7450 N   0  0  0  0  0  0  0  0  0  0  0  0
  -20.4350   20.8830  -28.7230 C   0  0  0  0  0  0  0  0  0  0  0  0
  -19.7270   21.8850  -28.8320 O   0  0  0  0  0  0  0  0  0  0  0  0
  -21.5920   20.7730  -29.6250 C   0  0  0  0  0  0  0  0  0  0  0  0
  -21.5320   20.4200  -30.9610 C   0  0  0  0  0  0  0  0  0  0  0  0
  -22.8120   20.5090  -31.4280 N   0  0  0  0  0  0  0  0  0  0  0  0
  -23.5940   20.9380  -30.3970 C   0  0  0  0  0  0  0  0  0  0  0  0
  -22.8910   21.1120  -29.3010 N   0  0  0  0  0  0  0  0  0  0  0  0
  -19.8190   20.1790  -26.3310 C   0  0  1  0  0  0  0  0  0  0  0  0
  -19.9130   18.9800  -25.3390 C   0  0  0  0  0  0  0  0  0  0  0  0
  -19.0100   18.1550  -25.1980 O   0  0  0  0  0  0  0  0  0  0  0  0
  -21.0270   18.9890  -24.5120 N   0  0  0  0  0  0  0  0  0  0  0  0
  -21.2890   17.9150  -23.5660 C   0  0  0  0  0  0  0  0  0  0  0  0
  -22.2210   18.4120  -22.4490 C   0  0  0  0  0  0  0  0  0  0  0  0
  -23.0290   17.2970  -21.7810 C   0  0  0  0  0  0  0  0  0  0  0  0
  -22.3120   15.9570  -21.8440 C   0  0  0  0  0  0  0  0  0  0  0  0
  -22.0610   15.5150  -23.2850 C   0  0  0  0  0  0  0  0  0  0  0  0
  -21.8680   16.6800  -24.2600 C   0  0  0  0  0  0  0  0  0  0  0  0
  -18.5960   21.0920  -26.2380 C   0  0  0  0  0  0  0  0  0  0  0  0
  -18.5730   22.3190  -25.5680 C   0  0  0  0  0  0  0  0  0  0  0  0
  -17.4130   23.0910  -25.5550 C   0  0  0  0  0  0  0  0  0  0  0  0
  -16.2980   22.6150  -26.2210 C   0  0  0  0  0  0  0  0  0  0  0  0
  -16.2720   21.4430  -26.8860 N   0  0  0  0  0  0  0  0  0  0  0  0
  -17.4150   20.7180  -26.8840 C   0  0  0  0  0  0  0  0  0  0  0  0
  -19.6220   17.6060  -28.5800 C   0  0  0  0  0  0  0  0  0  0  0  0
  -19.9550   16.2720  -28.8680 C   0  0  0  0  0  0  0  0  0  0  0  0
  -20.0133   13.0486  -28.2028 H   0  0  0  0  0  0  0  0  0  0  0  0
  -20.7637   12.4946  -29.7380 H   0  0  0  0  0  0  0  0  0  0  0  0
  -19.6597   13.9116  -29.7380 H   0  0  0  0  0  0  0  0  0  0  0  0
  -23.5783   14.2088  -29.8872 H   0  0  0  0  0  0  0  0  0  0  0  0
  -22.3536   15.1732  -30.7798 H   0  0  0  0  0  0  0  0  0  0  0  0
  -22.2584   13.3795  -30.7798 H   0  0  0  0  0  0  0  0  0  0  0  0
  -21.9653   14.0703  -26.7819 H   0  0  0  0  0  0  0  0  0  0  0  0
  -23.4666   14.0848  -27.7682 H   0  0  0  0  0  0  0  0  0  0  0  0
  -22.4059   12.6351  -27.7682 H   0  0  0  0  0  0  0  0  0  0  0  0
  -23.1911   16.3066  -27.8590 H   0  0  0  0  0  0  0  0  0  0  0  0
  -22.6011   18.6563  -27.3565 H   0  0  0  0  0  0  0  0  0  0  0  0
  -20.6372   20.1277  -31.5302 H   0  0  0  0  0  0  0  0  0  0  0  0
  -23.1280   20.2920  -32.3840 H   0  0  0  0  0  0  0  0  0  0  0  0
  -24.6768   21.1160  -30.4732 H   0  0  0  0  0  0  0  0  0  0  0  0
  -20.6167   20.8122  -25.9153 H   0  0  0  0  0  0  0  0  0  0  0  0
  -21.6860   19.7780  -24.5680 H   0  0  0  0  0  0  0  0  0  0  0  0
  -20.3315   17.6122  -23.1172 H   0  0  0  0  0  0  0  0  0  0  0  0
  -21.6089   18.9060  -21.6800 H   0  0  0  0  0  0  0  0  0  0  0  0
  -22.9437   19.0983  -22.9146 H   0  0  0  0  0  0  0  0  0  0  0  0
  -23.1949   17.5617  -20.7263 H   0  0  0  0  0  0  0  0  0  0  0  0
  -23.9821   17.1979  -22.3212 H   0  0  0  0  0  0  0  0  0  0  0  0
  -21.3460   16.0453  -21.3253 H   0  0  0  0  0  0  0  0  0  0  0  0
  -22.9522   15.2036  -21.3618 H   0  0  0  0  0  0  0  0  0  0  0  0
  -21.1548   14.8917  -23.3045 H   0  0  0  0  0  0  0  0  0  0  0  0
  -22.9551   14.9648  -23.6135 H   0  0  0  0  0  0  0  0  0  0  0  0
  -21.1798   16.3653  -25.0584 H   0  0  0  0  0  0  0  0  0  0  0  0
  -22.8531   16.9491  -24.6689 H   0  0  0  0  0  0  0  0  0  0  0  0
  -19.4745   22.6765  -25.0489 H   0  0  0  0  0  0  0  0  0  0  0  0
  -17.3847   24.0559  -25.0277 H   0  0  0  0  0  0  0  0  0  0  0  0
  -15.3833   23.2259  -26.2071 H   0  0  0  0  0  0  0  0  0  0  0  0
  -17.4140   19.7639  -27.4314 H   0  0  0  0  0  0  0  0  0  0  0  0
  -18.6022   17.9606  -28.7905 H   0  0  0  0  0  0  0  0  0  0  0  0
  -19.1909   15.6091  -29.3001 H   0  0  0  0  0  0  0  0  0  0  0  0
  1  2  1  0
  2  3  1  0
  2  4  1  0
  2  5  1  0
  5  6  1  0
  6  7  2  0
  7  8  1  0
  8  9  1  0
  9 10  1  0
 10 11  2  0
 10 12  1  0
 12 13  2  0
 13 14  1  0
 14 15  1  0
 15 16  2  0
  9 17  1  0
 17 18  1  0
 18 19  2  0
 18 20  1  0
 20 21  1  0
 21 22  1  0
 22 23  1  0
 23 24  1  0
 24 25  1  0
 25 26  1  0
 17 27  1  0
 27 28  1  0
 28 29  2  0
 29 30  1  0
 30 31  2  0
 31 32  1  0
  8 33  2  0
 33 34  1  0
 34  5  2  0
 16 12  1  0
 26 21  1  0
 32 27  2  0
  1 35  1  0
  1 36  1  0
  1 37  1  0
  3 38  1  0
  3 39  1  0
  3 40  1  0
  4 41  1  0
  4 42  1  0
  4 43  1  0
  6 44  1  0
  7 45  1  0
 13 46  1  0
 14 47  1  0
 15 48  1  0
 17 49  1  1
 20 50  1  0
 21 51  1  0
 22 52  1  0
 22 53  1  0
 23 54  1  0
 23 55  1  0
 24 56  1  0
 24 57  1  0
 25 58  1  0
 25 59  1  0
 26 60  1  0
 26 61  1  0
 28 62  1  0
 29 63  1  0
 30 64  1  0
 32 65  1  0
 33 66  1  0
 34 67  1  0
M  END
>  <meeko>  (1) 
{"is_sidechain": [false], "free_energy": -8.264, "intermolecular_energy": -12.129, "internal_energy": -1.209}

$$$$
X77_redock_20261022_pose
     RDKit          3D

 67 70  0  0  0  0  0  0  0  0999 V2000
  -22.4920   21.8450  -32.9460 C   0  0  0  0  0  0  0  0  0  0  0  0
  -23.5010   21.2540  -31.9350 C   0  0  0  0  0  0  0  0  0  0  0  0
  -24.0610   22.4310  -31.1080 C   0  0  0  0  0  0  0  0  0  0  0  0
  -24.6460   20.6180  -32.7520 C   0  0  0  0  0  0  0  0  0  0  0  0
  -22.8930   20.2030  -30.9930 C   0  0  0  0  0  0  0  0  0  0  0  0
  -23.6860   19.5810  -30.0160 C   0  0  0  0  0  0  0  0  0  0  0  0
  -23.1590   18.6190  -29.1430 C   0  0  0  0  0  0  0  0  0  0  0  0
  -21.8140   18.2280  -29.2060 C   0  0  0  0  0  0  0  0  0  0  0  0
  -21.2810   17.2400  -28.2890 N   0  0  0  0  0  0  0  0  0  0  0  0
  -20.4820   16.1710  -28.7680 C   0  0  0  0  0  0  0  0  0  0  0  0
  -19.2610   16.2450  -28.9110 O   0  0  0  0  0  0  0  0  0  0  0  0
  -21.1370   14.9210  -29.1830 C   0  0  0  0  0  0  0  0  0  0  0  0
  -20.5640   13.6630  -29.1270 C   0  0  0  0  0  0  0  0  0  0  0  0
  -21.4830   12.8100  -29.6670 N   0  0  0  0  0  0  0  0  0  0  0  0
  -22.5520   13.5580  -30.0640 C   0  0  0  0  0  0  0  0  0  0  0  0
  -22.3730   14.8320  -29.7930 N   0  0  0  0  0  0  0  0  0  0  0  0
  -21.4930   17.5160  -26.8270 C   0  0  1  0  0  0  0  0  0  0  0  0
  -21.6320   16.2550  -25.9220 C   0  0  0  0  0  0  0  0  0  0  0  0
  -22.4770   15.3810  -26.1160 O   0  0  0  0  0  0  0  0  0  0  0  0
  -20.6380   16.1060  -24.9660 N   0  0  0  0  0  0  0  0  0  0  0  0
  -20.6500   15.0100  -24.0090 C   0  0  0  0  0  0  0  0  0  0  0  0
  -19.2110   14.6240  -23.6310 C   0  0  0  0  0  0  0  0  0  0  0  0
  -19.0940   13.9590  -22.2580 C   0  0  0  0  0  0  0  0  0  0  0  0
  -20.3690   13.2260  -21.8680 C   0  0  0  0  0  0  0  0  0  0  0  0
  -21.5680   14.1720  -21.7980 C   0  0  0  0  0  0  0  0  0  0  0  0
  -21.4750   15.3540  -22.7670 C   0  0  0  0  0  0  0  0  0  0  0  0
  -20.6520   18.6840  -26.3080 C   0  0  0  0  0  0  0  0  0  0  0  0
  -21.1470   19.7260  -25.5160 C   0  0  0  0  0  0  0  0  0  0  0  0
  -20.3040   20.7570  -25.1070 C   0  0  0  0  0  0  0  0  0  0  0  0
  -18.9800   20.7230  -25.5060 C   0  0  0  0  0  0  0  0  0  0  0  0
  -18.4580   19.7460  -26.2720 N   0  0  0  0  0  0  0  0  0  0  0  0
  -19.3020   18.7600  -26.6580 C   0  0  0  0  0  0  0  0  0  0  0  0
  -21.0240   18.8470  -30.1790 C   0  0  0  0  0  0  0  0  0  0  0  0
  -21.5490   19.8140  -31.0530 C   0  0  0  0  0  0  0  0  0  0  0  0
  -21.6674   22.3280  -32.4013 H   0  0  0  0  0  0  0  0  0  0  0  0
  -22.0914   21.0388  -33.5781 H   0  0  0  0  0  0  0  0  0  0  0  0
  -22.9992   22.5888  -33.5781 H   0  0  0  0  0  0  0  0  0  0  0  0
  -23.9553   22.2089  -30.0359 H   0  0  0  0  0  0  0  0  0  0  0  0
  -23.5023   23.3473  -31.3494 H   0  0  0  0  0  0  0  0  0  0  0  0
  -25.1244   22.5756  -31.3494 H   0  0  0  0  0  0  0  0  0  0  0  0
  -25.3978   20.2004  -32.0661 H   0  0  0  0  0  0  0  0  0  0  0  0
  -25.1142   21.3853  -33.3860 H   0  0  0  0  0  0  0  0  0  0  0  0
  -24.2419   19.8150  -33.3860 H   0  0  0  0  0  0  0  0  0  0  0  0
  -24.7480   19.8554  -29.9333 H   0  0  0  0  0  0  0  0  0  0  0  0
  -23.8167   18.1598  -28.3903 H   0  0  0  0  0  0  0  0  0  0  0  0
  -19.5719   13.4034  -28.7292 H   0  0  0  0  0  0  0  0  0  0  0  0
  -21.3860   11.7890  -29.7600 H   0  0  0  0  0  0  0  0  0  0  0  0
  -23.4498   13.1476  -30.5492 H   0  0  0  0  0  0  0  0  0  0  0  0
  -22.5173   17.9067  -26.7370 H   0  0  0  0  0  0  0  0  0  0  0  0
  -19.8680   16.7900  -24.9330 H   0  0  0  0  0  0  0  0  0  0  0  0
  -21.1328   14.1440  -24.4854 H   0  0  0  0  0  0  0  0  0  0  0  0
  -18.8282   13.9251  -24.3893 H   0  0  0  0  0  0  0  0  0  0  0  0
  -18.6285   15.5561  -23.5878 H   0  0  0  0  0  0  0  0  0  0  0  0
  -18.2635   13.2381  -22.2824 H   0  0  0  0  0  0  0  0  0  0  0  0
  -18.9149   14.7482  -21.5129 H   0  0  0  0  0  0  0  0  0  0  0  0
  -20.5741   12.4456  -22.6156 H   0  0  0  0  0  0  0  0  0  0  0  0
  -20.2202   12.7876  -20.8702 H   0  0  0  0  0  0  0  0  0  0  0  0
  -22.4769   13.5993  -22.0346 H   0  0  0  0  0  0  0  0  0  0  0  0
  -21.5893   14.5903  -20.7808 H   0  0  0  0  0  0  0  0  0  0  0  0
  -22.4904   15.6367  -23.0816 H   0  0  0  0  0  0  0  0  0  0  0  0
  -20.9760   16.1840  -22.2454 H   0  0  0  0  0  0  0  0  0  0  0  0
  -22.2051   19.7311  -25.2154 H   0  0  0  0  0  0  0  0  0  0  0  0
  -20.6824   21.5788  -24.4814 H   0  0  0  0  0  0  0  0  0  0  0  0
  -18.3174   21.5383  -25.1799 H   0  0  0  0  0  0  0  0  0  0  0  0
  -18.8945   17.9602  -27.2939 H   0  0  0  0  0  0  0  0  0  0  0  0
  -19.9628   18.5697  -30.2628 H   0  0  0  0  0  0  0  0  0  0  0  0
  -20.8889   20.2762  -31.8018 H   0  0  0  0  0  0  0  0  0  0  0  0
  1  2  1  0
  2  3  1  0
  2  4  1  0
  2  5  1  0
  5  6  1  0
  6  7  2  0
  7  8  1  0
  8  9  1  0
  9 10  1  0
 10 11  2  0
 10 12  1  0
 12 13  2  0
 13 14  1  0
 14 15  1  0
 15 16  2  0
  9 17  1  0
 17 18  1  0
 18 19  2  0
 18 20  1  0
 20 21  1  0
 21 22  1  0
 22 23  1  0
 23 24  1  0
 24 25  1  0
 25 26  1  0
 17 27  1  0
 27 28  1  0
 28 29  2  0
 29 30  1  0
 30 31  2  0
 31 32  1  0
  8 33  2  0
 33 34  1  0
 34  5  2  0
 16 12  1  0
 26 21  1  0
 32 27  2  0
  1 35  1  0
  1 36  1  0
  1 37  1  0
  3 38  1  0
  3 39  1  0
  3 40  1  0
  4 41  1  0
  4 42  1  0
  4 43  1  0
  6 44  1  0
  7 45  1  0
 13 46  1  0
 14 47  1  0
 15 48  1  0
 17 49  1  6
 20 50  1  0
 21 51  1  0
 22 52  1  0
 22 53  1  0
 23 54  1  0
 23 55  1  0
 24 56  1  0
 24 57  1  0
 25 58  1  0
 25 59  1  0
 26 60  1  0
 26 61  1  0
 28 62  1  0
 29 63  1  0
 30 64  1  0
 32 65  1  0
 33 66  1  0
 34 67  1  0
M  END
>  <meeko>  (2) 
{"is_sidechain": [false], "free_energy": -8.2, "intermolecular_energy": -11.331, "internal_energy": -1.913}

$$$$
X77_redock_20261022_pose
     RDKit          3D

 67 70  0  0  0  0  0  0  0  0999 V2000
  -22.4760   14.3530  -30.2690 C   0  0  0  0  0  0  0  0  0  0  0  0
  -21.6870   14.2840  -28.9410 C   0  0  0  0  0  0  0  0  0  0  0  0
  -22.5820   13.5550  -27.9160 C   0  0  0  0  0  0  0  0  0  0  0  0
  -20.4230   13.4380  -29.2050 C   0  0  0  0  0  0  0  0  0  0  0  0
  -21.2820   15.6600  -28.3880 C   0  0  0  0  0  0  0  0  0  0  0  0
  -22.1320   16.3500  -27.5100 C   0  0  0  0  0  0  0  0  0  0  0  0
  -21.7900   17.6060  -26.9880 C   0  0  0  0  0  0  0  0  0  0  0  0
  -20.5790   18.2320  -27.3160 C   0  0  0  0  0  0  0  0  0  0  0  0
  -20.2450   19.5360  -26.7780 N   0  0  0  0  0  0  0  0  0  0  0  0
  -20.5130   19.8440  -25.4200 C   0  0  0  0  0  0  0  0  0  0  0  0
  -19.9210   19.3230  -24.4750 O   0  0  0  0  0  0  0  0  0  0  0  0
  -21.5980   20.7860  -25.1030 C   0  0  0  0  0  0  0  0  0  0  0  0
  -21.5510   21.7530  -24.1160 C   0  0  0  0  0  0  0  0  0  0  0  0
  -22.7800   22.3480  -24.1180 N   0  0  0  0  0  0  0  0  0  0  0  0
  -23.5370   21.7170  -25.0590 C   0  0  0  0  0  0  0  0  0  0  0  0
  -22.8590   20.7690  -25.6650 N   0  0  0  0  0  0  0  0  0  0  0  0
  -19.4700   20.4460  -27.6900 C   0  0  1  0  0  0  0  0  0  0  0  0
  -20.3180   21.2020  -28.7570 C   0  0  0  0  0  0  0  0  0  0  0  0
  -19.8160   21.8870  -29.6480 O   0  0  0  0  0  0  0  0  0  0  0  0
  -21.6780   20.9300  -28.7270 N   0  0  0  0  0  0  0  0  0  0  0  0
  -22.6140   21.5920  -29.6230 C   0  0  0  0  0  0  0  0  0  0  0  0
  -22.8610   20.7210  -30.8650 C   0  0  0  0  0  0  0  0  0  0  0  0
  -24.2080   20.9850  -31.5420 C   0  0  0  0  0  0  0  0  0  0  0  0
  -24.6930   22.4090  -31.3130 C   0  0  0  0  0  0  0  0  0  0  0  0
  -24.8810   22.7120  -29.8260 C   0  0  0  0  0  0  0  0  0  0  0  0
  -23.9280   21.9330  -28.9150 C   0  0  0  0  0  0  0  0  0  0  0  0
  -18.3660   21.2210  -26.9700 C   0  0  0  0  0  0  0  0  0  0  0  0
  -18.5450   22.4610  -26.3480 C   0  0  0  0  0  0  0  0  0  0  0  0
  -17.4700   23.0990  -25.7320 C   0  0  0  0  0  0  0  0  0  0  0  0
  -16.2340   22.4790  -25.7580 C   0  0  0  0  0  0  0  0  0  0  0  0
  -16.0100   21.2890  -26.3470 N   0  0  0  0  0  0  0  0  0  0  0  0
  -17.0720   20.6950  -26.9410 C   0  0  0  0  0  0  0  0  0  0  0  0
  -19.7320   17.5450  -28.1910 C   0  0  0  0  0  0  0  0  0  0  0  0
  -20.0750   16.2880  -28.7170 C   0  0  0  0  0  0  0  0  0  0  0  0
  -23.5504   14.4470  -30.0527 H   0  0  0  0  0  0  0  0  0  0  0  0
  -22.1412   15.2253  -30.8495 H   0  0  0  0  0  0  0  0  0  0  0  0
  -22.2977   13.4358  -30.8495 H   0  0  0  0  0  0  0  0  0  0  0  0
  -22.2607   13.8167  -26.8971 H   0  0  0  0  0  0  0  0  0  0  0  0
  -23.6287   13.8608  -28.0603 H   0  0  0  0  0  0  0  0  0  0  0  0
  -22.4943   12.4680  -28.0603 H   0  0  0  0  0  0  0  0  0  0  0  0
  -19.9754   13.1384  -28.2459 H   0  0  0  0  0  0  0  0  0  0  0  0
  -20.6960   12.5400  -29.7786 H   0  0  0  0  0  0  0  0  0  0  0  0
  -19.6969   14.0328  -29.7786 H   0  0  0  0  0  0  0  0  0  0  0  0
  -23.0912   15.8940  -27.2238 H   0  0  0  0  0  0  0  0  0  0  0  0
  -22.4883   18.1120  -26.3051 H   0  0  0  0  0  0  0  0  0  0  0  0
  -20.6988   21.9936  -23.4634 H   0  0  0  0  0  0  0  0  0  0  0  0
  -23.0790   23.1300  -23.5170 H   0  0  0  0  0  0  0  0  0  0  0  0
  -24.5839   21.9696  -25.2830 H   0  0  0  0  0  0  0  0  0  0  0  0
  -18.8956   19.7880  -28.3586 H   0  0  0  0  0  0  0  0  0  0  0  0
  -22.0350   20.2390  -28.0520 H   0  0  0  0  0  0  0  0  0  0  0  0
  -22.1664   22.5439  -29.9448 H   0  0  0  0  0  0  0  0  0  0  0  0
  -22.0611   20.9197  -31.5935 H   0  0  0  0  0  0  0  0  0  0  0  0
  -22.8699   19.6741  -30.5275 H   0  0  0  0  0  0  0  0  0  0  0  0
  -24.1007   20.8162  -32.6237 H   0  0  0  0  0  0  0  0  0  0  0  0
  -24.9483   20.2998  -31.1033 H   0  0  0  0  0  0  0  0  0  0  0  0
  -23.9526   23.1086  -31.7282 H   0  0  0  0  0  0  0  0  0  0  0  0
  -25.6670   22.5230  -31.8113 H   0  0  0  0  0  0  0  0  0  0  0  0
  -24.7129   23.7873  -29.6665 H   0  0  0  0  0  0  0  0  0  0  0  0
  -25.9033   22.4039  -29.5613 H   0  0  0  0  0  0  0  0  0  0  0  0
  -23.7058   22.5435  -28.0273 H   0  0  0  0  0  0  0  0  0  0  0  0
  -24.4192   20.9897  -28.6342 H   0  0  0  0  0  0  0  0  0  0  0  0
  -19.5380   22.9343  -26.3451 H   0  0  0  0  0  0  0  0  0  0  0  0
  -17.6014   24.0725  -25.2369 H   0  0  0  0  0  0  0  0  0  0  0  0
  -15.3878   22.9856  -25.2710 H   0  0  0  0  0  0  0  0  0  0  0  0
  -16.9036   19.7277  -27.4369 H   0  0  0  0  0  0  0  0  0  0  0  0
  -18.7719   18.0005  -28.4751 H   0  0  0  0  0  0  0  0  0  0  0  0
  -19.3782   15.7853  -29.4039 H   0  0  0  0  0  0  0  0  0  0  0  0
  1  2  1  0
  2  3  1  0
  2  4  1  0
  2  5  1  0
  5  6  1  0
  6  7  2  0
  7  8  1  0
  8  9  1  0
  9 10  1  0
 10 11  2  0
 10 12  1  0
 12 13  2  0
 13 14  1  0
 14 15  1  0
 15 16  2  0
  9 17  1  0
 17 18  1  0
 18 19  2  0
 18 20  1  0
 20 21  1  0
 21 22  1  0
 22 23  1  0
 23 24  1  0
 24 25  1  0
 25 26  1  0
 17 27  1  0
 27 28  1  0
 28 29  2  0
 29 30  1  0
 30 31  2  0
 31 32  1  0
  8 33  2  0
 33 34  1  0
 34  5  2  0
 16 12  1  0
 26 21  1  0
 32 27  2  0
  1 35  1  0
  1 36  1  0
  1 37  1  0
  3 38  1  0
  3 39  1  0
  3 40  1  0
  4 41  1  0
  4 42  1  0
  4 43  1  0
  6 44  1  0
  7 45  1  0
 13 46  1  0
 14 47  1  0
 15 48  1  0
 17 49  1  6
 20 50  1  0
 21 51  1  0
 22 52  1  0
 22 53  1  0
 23 54  1  0
 23 55  1  0
 24 56  1  0
 24 57  1  0
 25 58  1  0
 25 59  1  0
 26 60  1  0
 26 61  1  0
 28 62  1  0
 29 63  1  0
 30 64  1  0
 32 65  1  0
 33 66  1  0
 34 67  1  0
M  END
>  <meeko>  (3) 
{"is_sidechain": [false], "free_energy": -8.172, "intermolecular_energy": -10.986, "internal_energy": -2.217}

$$$$
