X77_redock_20261023_pose
     RDKit          3D

 67 70  0  0  0  0  0  0  0  0999 V2000
  -20.4190   13.3670  -29.1160 C   0  0  0  0  0  0  0  0  0  0  0  0
  -21.6130   14.3190  -28.8740 C   0  0  0  0  0  0  0  0  0  0  0  0
  -22.5020   14.2640  -30.1350 C   0  0  0  0  0  0  0  0  0  0  0  0
  -22.4030   13.7660  -27.6700 C   0  0  0  0  0  0  0  0  0  0  0  0
  -21.1990   15.7740  -28.5970 C   0  0  0  0  0  0  0  0  0  0  0  0
  -22.1210   16.6830  -28.0560 C   0  0  0  0  0  0  0  0  0  0  0  0
  -21.7740   18.0150  -27.7910 C   0  0  0  0  0  0  0  0  0  0  0  0
  -20.4850   18.5030  -28.0510 C   0  0  0  0  0  0  0  0  0  0  0  0
  -20.1440   19.8870  -27.7840 N   0  0  0  0  0  0  0  0  0  0  0  0
  -20.3170   20.8750  -28.7860 C   0  0  0  0  0  0  0  0  0  0  0  0
  -19.7240   21.9540  -28.7870 O   0  0  0  0  0  0  0  0  0  0  0  0
  -21.3000   20.6440  -29.8550 C   0  0  0  0  0  0  0  0  0  0  0  0
  -20.9980   20.2450  -31.1450 C   0  0  0  0  0  0  0  0  0  0  0  0
  -22.1870   20.2200  -31.8160 N   0  0  0  0  0  0  0  0  0  0  0  0
  -23.1550   20.6300  -30.9480 C   0  0  0  0  0  0  0  0  0  0  0  0
  -22.6550   20.8990  -29.7630 N   0  0  0  0  0  0  0  0  0  0  0  0
  -19.7630   20.2100  -26.3670 C   0  0  1  0  0  0  0  0  0  0  0  0
  -19.8710   19.0250  -25.3600 C   0  0  0  0  0  0  0  0  0  0  0  0
  -18.9710   18.2010  -25.1970 O   0  0  0  0  0  0  0  0  0  0  0  0
  -20.9920   19.0480  -24.5450 N   0  0  0  0  0  0  0  0  0  0  0  0
  -21.2670   17.9880  -23.5870 C   0  0  0  0  0  0  0  0  0  0  0  0
  -22.2070   18.5030  -22.4850 C   0  0  0  0  0  0  0  0  0  0  0  0
  -23.0250   17.4010  -21.8090 C   0  0  0  0  0  0  0  0  0  0  0  0
  -22.3130   16.0570  -21.8470 C   0  0  0  0  0  0  0  0  0  0  0  0
  -22.0510   15.5940  -23.2810 C   0  0  0  0  0  0  0  0  0  0  0  0
  -21.8450   16.7450  -24.2690 C   0  0  0  0  0  0  0  0  0  0  0  0
  -18.5450   21.1290  -26.2670 C   0  0  0  0  0  0  0  0  0  0  0  0
  -18.5310   22.3540  -25.5920 C   0  0  0  0  0  0  0  0  0  0  0  0
  -17.3750   23.1320  -25.5720 C   0  0  0  0  0  0  0  0  0  0  0  0
  -16.2550   22.6640  -26.2360 C   0  0  0  0  0  0  0  0  0  0  0  0
  -16.2210   21.4950  -26.9040 N   0  0  0  0  0  0  0  0  0  0  0  0
  -17.3600   20.7640  -26.9100 C   0  0  0  0  0  0  0  0  0  0  0  0
  -19.5660   17.5980  -28.5920 C   0  0  0  0  0  0  0  0  0  0  0  0
  -19.9140   16.2640  -28.8600 C   0  0  0  0  0  0  0  0  0  0  0  0
  -20.0089   13.0400  -28.1491 H   0  0  0  0  0  0  0  0  0  0  0  0
  -20.7592   12.4896  -29.6855 H   0  0  0  0  0  0  0  0  0  0  0  0
  -19.6394   13.8941  -29.6855 H   0  0  0  0  0  0  0  0  0  0  0  0
  -23.5586   14.1986  -29.8362 H   0  0  0  0  0  0  0  0  0  0  0  0
  -22.3459   15.1735  -30.7337 H   0  0  0  0  0  0  0  0  0  0  0  0
  -22.2349   13.3807  -30.7337 H   0  0  0  0  0  0  0  0  0  0  0  0
  -21.9276   14.0988  -26.7355 H   0  0  0  0  0  0  0  0  0  0  0  0
  -23.4374   14.1382  -27.7080 H   0  0  0  0  0  0  0  0  0  0  0  0
  -22.4073   12.6667  -27.7080 H   0  0  0  0  0  0  0  0  0  0  0  0
  -23.1428   16.3414  -27.8341 H   0  0  0  0  0  0  0  0  0  0  0  0
  -22.5303   18.6934  -27.3693 H   0  0  0  0  0  0  0  0  0  0  0  0
  -20.0043   19.9986  -31.5473 H   0  0  0  0  0  0  0  0  0  0  0  0
  -22.3260   19.9420  -32.7980 H   0  0  0  0  0  0  0  0  0  0  0  0
  -24.2200   20.7238  -31.2069 H   0  0  0  0  0  0  0  0  0  0  0  0
  -20.5689   20.8465  -25.9728 H   0  0  0  0  0  0  0  0  0  0  0  0
  -21.6500   19.8370  -24.6200 H   0  0  0  0  0  0  0  0  0  0  0  0
  -20.3143   17.6882  -23.1261 H   0  0  0  0  0  0  0  0  0  0  0  0
  -21.5998   19.0051  -21.7174 H   0  0  0  0  0  0  0  0  0  0  0  0
  -22.9231   19.1851  -22.9666 H   0  0  0  0  0  0  0  0  0  0  0  0
  -23.1990   17.6810  -20.7596 H   0  0  0  0  0  0  0  0  0  0  0  0
  -23.9737   17.2982  -22.3563 H   0  0  0  0  0  0  0  0  0  0  0  0
  -21.3513   16.1484  -21.3209 H   0  0  0  0  0  0  0  0  0  0  0  0
  -22.9605   15.3129  -21.3601 H   0  0  0  0  0  0  0  0  0  0  0  0
  -21.1472   14.9670  -23.2843 H   0  0  0  0  0  0  0  0  0  0  0  0
  -22.9441   15.0426  -23.6100 H   0  0  0  0  0  0  0  0  0  0  0  0
  -21.1512   16.4170  -25.0571 H   0  0  0  0  0  0  0  0  0  0  0  0
  -22.8257   17.0124  -24.6893 H   0  0  0  0  0  0  0  0  0  0  0  0
  -19.4363   22.7047  -25.0748 H   0  0  0  0  0  0  0  0  0  0  0  0
  -17.3535   24.0951  -25.0410 H   0  0  0  0  0  0  0  0  0  0  0  0
  -15.3436   23.2796  -26.2173 H   0  0  0  0  0  0  0  0  0  0  0  0
  -17.3519   19.8125  -27.4618 H   0  0  0  0  0  0  0  0  0  0  0  0
  -18.5442   17.9399  -28.8133 H   0  0  0  0  0  0  0  0  0  0  0  0
  -19.1587   15.5877  -29.2869 H   0  0  0  0  0  0  0  0  0  0  0  0
  1  2  1  0
  2  3  1  0
  2  4  1  0
  2  5  1  0
  5  6  1  0
  6  7  2  0
  7  8  1  0
  8  9  1  0
  9 10  1  0
 10 11  2  0
 10 12  1  0
 12 13  2  0
 13 14  1  0
 14 15  1  0
 15 16  2  0
  9 17  1  0
 17 18  1  0
 18 19  2  0
 18 20  1  0
 20 21  1  0
 21 22  1  0
 22 23  1  0
 23 24  1  0
 24 25  1  0
 25 26  1  0
 17 27  1  0
 27 28  1  0
 28 29  2  0
 29 30  1  0
 30 31  2  0
 31 32  1  0
  8 33  2  0
 33 34  1  0
 34  5  2  0
 16 12  1  0
 26 21  1  0
 32 27  2  0
  1 35  1  0
  1 36  1  0
  1 37  1  0
  3 38  1  0
  3 39  1  0
  3 40  1  0
  4 41  1  0
  4 42  1  0
  4 43  1  0
  6 44  1  0
  7 45  1  0
 13 46  1  0
 14 47  1  0
 15 48  1  0
 17 49  1  1
 20 50  1  0
 21 51  1  0
 22 52  1  0
 22 53  1  0
 23 54  1  0
 23 55  1  0
 24 56  1  0
 24 57  1  0
 25 58  1  0
 25 59  1  0
 26 60  1  0
 26 61  1  0
 28 62  1  0
 29 63  1  0
 30 64  1  0
 32 65  1  0
 33 66  1  0
 34 67  1  0
M  END
>  <meeko>  (1) 
{"is_sidechain": [false], "free_energy": -8.368, "intermolecular_energy": -12.281, "internal_energy": -1.131}

$$$$
X77_redock_20261023_pose
     RDKit          3D

 67 70  0  0  0  0  0  0  0  0999 V2000
  -22.8850   21.7420  -32.7450 C   0  0  0  0  0  0  0  0  0  0  0  0
  -23.8670   21.0150  -31.7970 C   0  0  0  0  0  0  0  0  0  0  0  0
  -24.5710   22.0980  -30.9530 C   0  0  0  0  0  0  0  0  0  0  0  0
  -24.9110   20.3010  -32.6810 C   0  0  0  0  0  0  0  0  0  0  0  0
  -23.1910   19.9930  -30.8680 C   0  0  0  0  0  0  0  0  0  0  0  0
  -23.8240   19.5830  -29.6840 C   0  0  0  0  0  0  0  0  0  0  0  0
  -23.2330   18.6520  -28.8180 C   0  0  0  0  0  0  0  0  0  0  0  0
  -21.9820   18.0830  -29.0940 C   0  0  0  0  0  0  0  0  0  0  0  0
  -21.3780   17.1320  -28.1820 N   0  0  0  0  0  0  0  0  0  0  0  0
  -20.5730   16.0740  -28.6770 C   0  0  0  0  0  0  0  0  0  0  0  0
  -19.3640   16.1780  -28.8830 O   0  0  0  0  0  0  0  0  0  0  0  0
  -21.2110   14.7960  -29.0290 C   0  0  0  0  0  0  0  0  0  0  0  0
  -20.5470   13.5980  -29.2200 C   0  0  0  0  0  0  0  0  0  0  0  0
  -21.5020   12.6980  -29.5960 N   0  0  0  0  0  0  0  0  0  0  0  0
  -22.6890   13.3640  -29.6590 C   0  0  0  0  0  0  0  0  0  0  0  0
  -22.5490   14.6280  -29.3300 N   0  0  0  0  0  0  0  0  0  0  0  0
  -21.5270   17.4360  -26.7180 C   0  0  1  0  0  0  0  0  0  0  0  0
  -21.6160   16.1920  -25.7840 C   0  0  0  0  0  0  0  0  0  0  0  0
  -22.4450   15.2950  -25.9390 O   0  0  0  0  0  0  0  0  0  0  0  0
  -20.5970   16.0860  -24.8490 N   0  0  0  0  0  0  0  0  0  0  0  0
  -20.5620   15.0110  -23.8690 C   0  0  0  0  0  0  0  0  0  0  0  0
  -19.1060   14.6600  -23.5230 C   0  0  0  0  0  0  0  0  0  0  0  0
  -18.9390   14.0270  -22.1400 C   0  0  0  0  0  0  0  0  0  0  0  0
  -20.1880   13.2800  -21.6980 C   0  0  0  0  0  0  0  0  0  0  0  0
  -21.4030   14.2050  -21.6150 C   0  0  0  0  0  0  0  0  0  0  0  0
  -21.3590   15.3670  -22.6110 C   0  0  0  0  0  0  0  0  0  0  0  0
  -20.6730   18.6190  -26.2600 C   0  0  0  0  0  0  0  0  0  0  0  0
  -21.1390   19.6700  -25.4640 C   0  0  0  0  0  0  0  0  0  0  0  0
  -20.2880   20.7160  -25.1130 C   0  0  0  0  0  0  0  0  0  0  0  0
  -18.9840   20.6860  -25.5740 C   0  0  0  0  0  0  0  0  0  0  0  0
  -18.4900   19.6990  -26.3470 N   0  0  0  0  0  0  0  0  0  0  0  0
  -19.3420   18.7000  -26.6750 C   0  0  0  0  0  0  0  0  0  0  0  0
  -21.3510   18.4920  -30.2730 C   0  0  0  0  0  0  0  0  0  0  0  0
  -21.9400   19.4270  -31.1410 C   0  0  0  0  0  0  0  0  0  0  0  0
  -22.1412   22.2926  -32.1504 H   0  0  0  0  0  0  0  0  0  0  0  0
  -22.3732   21.0034  -33.3795 H   0  0  0  0  0  0  0  0  0  0  0  0
  -23.4421   22.4471  -33.3795 H   0  0  0  0  0  0  0  0  0  0  0  0
  -24.4291   21.8797  -29.8842 H   0  0  0  0  0  0  0  0  0  0  0  0
  -24.1399   23.0827  -31.1865 H   0  0  0  0  0  0  0  0  0  0  0  0
  -25.6459   22.1037  -31.1865 H   0  0  0  0  0  0  0  0  0  0  0  0
  -25.6495   19.7960  -32.0410 H   0  0  0  0  0  0  0  0  0  0  0  0
  -25.4209   21.0404  -33.3161 H   0  0  0  0  0  0  0  0  0  0  0  0
  -24.4069   19.5577  -33.3161 H   0  0  0  0  0  0  0  0  0  0  0  0
  -24.8084   20.0026  -29.4292 H   0  0  0  0  0  0  0  0  0  0  0  0
  -23.7640   18.3610  -27.8996 H   0  0  0  0  0  0  0  0  0  0  0  0
  -19.4706   13.4092  -29.0947 H   0  0  0  0  0  0  0  0  0  0  0  0
  -21.3510   11.6990  -29.7970 H   0  0  0  0  0  0  0  0  0  0  0  0
  -23.6441   12.9015  -29.9488 H   0  0  0  0  0  0  0  0  0  0  0  0
  -22.5489   17.8225  -26.5898 H   0  0  0  0  0  0  0  0  0  0  0  0
  -19.8430   16.7880  -24.8480 H   0  0  0  0  0  0  0  0  0  0  0  0
  -21.0414   14.1263  -24.3134 H   0  0  0  0  0  0  0  0  0  0  0  0
  -18.7307   13.9522  -24.2767 H   0  0  0  0  0  0  0  0  0  0  0  0
  -18.5404   15.6034  -23.5157 H   0  0  0  0  0  0  0  0  0  0  0  0
  -18.0963   13.3208  -22.1726 H   0  0  0  0  0  0  0  0  0  0  0  0
  -18.7545   14.8356  -21.4174 H   0  0  0  0  0  0  0  0  0  0  0  0
  -20.3989   12.4792  -22.4220 H   0  0  0  0  0  0  0  0  0  0  0  0
  -20.0030   12.8675  -20.6952 H   0  0  0  0  0  0  0  0  0  0  0  0
  -22.3068   13.6104  -21.8143 H   0  0  0  0  0  0  0  0  0  0  0  0
  -21.4048   14.6448  -20.6067 H   0  0  0  0  0  0  0  0  0  0  0  0
  -22.3879   15.6244  -22.9028 H   0  0  0  0  0  0  0  0  0  0  0  0
  -20.8613   16.2170  -22.1213 H   0  0  0  0  0  0  0  0  0  0  0  0
  -22.1817   19.6710  -25.1135 H   0  0  0  0  0  0  0  0  0  0  0  0
  -20.6444   21.5455  -24.4846 H   0  0  0  0  0  0  0  0  0  0  0  0
  -18.3142   21.5126  -25.2944 H   0  0  0  0  0  0  0  0  0  0  0  0
  -18.9579   17.8924  -27.3156 H   0  0  0  0  0  0  0  0  0  0  0  0
  -20.3674   18.0706  -30.5277 H   0  0  0  0  0  0  0  0  0  0  0  0
  -21.4056   19.7211  -32.0564 H   0  0  0  0  0  0  0  0  0  0  0  0
  1  2  1  0
  2  3  1  0
  2  4  1  0
  2  5  1  0
  5  6  1  0
  6  7  2  0
  7  8  1  0
  8  9  1  0
  9 10  1  0
 10 11  2  0
 10 12  1  0
 12 13  2  0
 13 14  1  0
 14 15  1  0
 15 16  2  0
  9 17  1  0
 17 18  1  0
 18 19  2  0
 18 20  1  0
 20 21  1  0
 21 22  1  0
 22 23  1  0
 23 24  1  0
 24 25  1  0
 25 26  1  0
 17 27  1  0
 27 28  1  0
 28 29  2  0
 29 30  1  0
 30 31  2  0
 31 32  1  0
  8 33  2  0
 33 34  1  0
 34  5  2  0
 16 12  1  0
 26 21  1  0
 32 27  2  0
  1 35  1  0
  1 36  1  0
  1 37  1  0
  3 38  1  0
  3 39  1  0
  3 40  1  0
  4 41  1  0
  4 42  1  0
  4 43  1  0
  6 44  1  0
  7 45  1  0
 13 46  1  0
 14 47  1  0
 15 48  1  0
 17 49  1  6
 20 50  1  0
 21 51  1  0
 22 52  1  0
 22 53  1  0
 23 54  1  0
 23 55  1  0
 24 56  1  0
 24 57  1  0
 25 58  1  0
 25 59  1  0
 26 60  1  0
 26 61  1  0
 28 62  1  0
 29 63  1  0
 30 64  1  0
 32 65  1  0
 33 66  1  0
 34 67  1  0
M  END
>  <meeko>  (2) 
{"is_sidechain": [false], "free_energy": -8.258, "intermolecular_energy": -11.4, "internal_energy": -1.85}

$$$$
