Flexible PEG synthetic attachment-point proxy 0
     RDKit          3D

 29 28  0  0  0  0  0  0  0  0999 V2000
    4.4377   -0.4885    1.2615 C   0  0  0  0  0  0  0  0  0  1  0  0
    4.1242    0.0486   -0.1235 C   0  0  0  0  0  0  0  0  0  0  0  0
    2.8088   -0.3153   -0.5324 O   0  0  0  0  0  0  0  0  0  0  0  0
    1.7981    0.5666   -0.0296 C   0  0  0  0  0  0  0  0  0  0  0  0
    0.4197    0.0503   -0.4439 C   0  0  0  0  0  0  0  0  0  0  0  0
    0.0639   -1.0617    0.3867 O   0  0  0  0  0  0  0  0  0  0  0  0
   -1.0541   -1.8040   -0.1130 C   0  0  0  0  0  0  0  0  0  0  0  0
   -2.3820   -1.0586    0.0441 C   0  0  0  0  0  0  0  0  0  0  0  0
   -2.5470   -0.1287   -1.0327 O   0  0  0  0  0  0  0  0  0  0  0  0
   -3.7596    0.6169   -0.9491 C   0  0  0  0  0  0  0  0  0  0  0  0
   -3.6138    1.8009   -0.0100 C   0  0  0  0  0  0  0  0  0  2  0  0
    5.4827   -0.2968    1.5218 H   0  0  0  0  0  0  0  0  0  0  0  0
    4.2538   -1.5669    1.3069 H   0  0  0  0  0  0  0  0  0  0  0  0
    3.8045   -0.0235    2.0228 H   0  0  0  0  0  0  0  0  0  0  0  0
    4.2623    1.1346   -0.1721 H   0  0  0  0  0  0  0  0  0  0  0  0
    4.8172   -0.4020   -0.8417 H   0  0  0  0  0  0  0  0  0  0  0  0
    1.9601    1.5594   -0.4631 H   0  0  0  0  0  0  0  0  0  0  0  0
    1.8621    0.6270    1.0614 H   0  0  0  0  0  0  0  0  0  0  0  0
   -0.3144    0.8471   -0.2931 H   0  0  0  0  0  0  0  0  0  0  0  0
    0.4337   -0.2555   -1.4958 H   0  0  0  0  0  0  0  0  0  0  0  0
   -1.0959   -2.7186    0.4876 H   0  0  0  0  0  0  0  0  0  0  0  0
   -0.8711   -2.0936   -1.1540 H   0  0  0  0  0  0  0  0  0  0  0  0
   -3.2052   -1.7802    0.0024 H   0  0  0  0  0  0  0  0  0  0  0  0
   -2.4031   -0.5306    1.0024 H   0  0  0  0  0  0  0  0  0  0  0  0
   -4.5951   -0.0278   -0.6537 H   0  0  0  0  0  0  0  0  0  0  0  0
   -3.9737    0.9895   -1.9561 H   0  0  0  0  0  0  0  0  0  0  0  0
   -3.4561    1.4745    1.0221 H   0  0  0  0  0  0  0  0  0  0  0  0
   -2.7477    2.4097   -0.2895 H   0  0  0  0  0  0  0  0  0  0  0  0
   -4.5101    2.4272   -0.0375 H   0  0  0  0  0  0  0  0  0  0  0  0
  1  2  1  0
  2  3  1  0
  3  4  1  0
  4  5  1  0
  5  6  1  0
  6  7  1  0
  7  8  1  0
  8  9  1  0
  9 10  1  0
 10 11  1  0
  1 12  1  0
  1 13  1  0
  1 14  1  0
  2 15  1  0
  2 16  1  0
  4 17  1  0
  4 18  1  0
  5 19  1  0
  5 20  1  0
  7 21  1  0
  7 22  1  0
  8 23  1  0
  8 24  1  0
 10 25  1  0
 10 26  1  0
 11 27  1  0
 11 28  1  0
 11 29  1  0
M  END
>  <anchor_atom_maps>  (1) 
1,2

>  <distance_A>  (1) 
8.466606288001977

>  <Rg_A>  (1) 
3.0998156367456193

>  <energy_kcal_mol>  (1) 
49.317445130684156

>  <ensemble>  (1) 
ETKDGv3 unweighted sampling; not a thermodynamic population

$$$$
Flexible PEG synthetic attachment-point proxy 1
     RDKit          3D

 29 28  0  0  0  0  0  0  0  0999 V2000
   -5.2534   -0.8916    0.1273 C   0  0  0  0  0  0  0  0  0  1  0  0
   -4.6510    0.4519   -0.2432 C   0  0  0  0  0  0  0  0  0  0  0  0
   -3.3941    0.2984   -0.8996 O   0  0  0  0  0  0  0  0  0  0  0  0
   -2.3144    0.0611    0.0029 C   0  0  0  0  0  0  0  0  0  0  0  0
   -1.0137   -0.0390   -0.7873 C   0  0  0  0  0  0  0  0  0  0  0  0
    0.0721   -0.2635    0.1125 O   0  0  0  0  0  0  0  0  0  0  0  0
    1.3135   -0.3708   -0.5849 C   0  0  0  0  0  0  0  0  0  0  0  0
    2.4351   -0.6371    0.4175 C   0  0  0  0  0  0  0  0  0  0  0  0
    3.6991   -0.7591   -0.2349 O   0  0  0  0  0  0  0  0  0  0  0  0
    4.3692    0.4830   -0.4384 C   0  0  0  0  0  0  0  0  0  0  0  0
    5.1672    0.8710    0.7938 C   0  0  0  0  0  0  0  0  0  2  0  0
   -6.2667   -0.7641    0.5193 H   0  0  0  0  0  0  0  0  0  0  0  0
   -4.6550   -1.4004    0.8887 H   0  0  0  0  0  0  0  0  0  0  0  0
   -5.2916   -1.5511   -0.7457 H   0  0  0  0  0  0  0  0  0  0  0  0
   -4.5547    1.1023    0.6334 H   0  0  0  0  0  0  0  0  0  0  0  0
   -5.3186    0.9546   -0.9507 H   0  0  0  0  0  0  0  0  0  0  0  0
   -2.4743   -0.8675    0.5611 H   0  0  0  0  0  0  0  0  0  0  0  0
   -2.2430    0.8801    0.7285 H   0  0  0  0  0  0  0  0  0  0  0  0
   -0.8490    0.8874   -1.3505 H   0  0  0  0  0  0  0  0  0  0  0  0
   -1.0808   -0.8620   -1.5088 H   0  0  0  0  0  0  0  0  0  0  0  0
    1.2681   -1.1901   -1.3124 H   0  0  0  0  0  0  0  0  0  0  0  0
    1.5062    0.5550   -1.1380 H   0  0  0  0  0  0  0  0  0  0  0  0
    2.2358   -1.5869    0.9267 H   0  0  0  0  0  0  0  0  0  0  0  0
    2.4547    0.1290    1.2010 H   0  0  0  0  0  0  0  0  0  0  0  0
    5.0590    0.3410   -1.2767 H   0  0  0  0  0  0  0  0  0  0  0  0
    3.6671    1.2744   -0.7210 H   0  0  0  0  0  0  0  0  0  0  0  0
    5.8541    0.0663    1.0758 H   0  0  0  0  0  0  0  0  0  0  0  0
    4.5131    1.0472    1.6530 H   0  0  0  0  0  0  0  0  0  0  0  0
    5.7462    1.7803    0.6083 H   0  0  0  0  0  0  0  0  0  0  0  0
  1  2  1  0
  2  3  1  0
  3  4  1  0
  4  5  1  0
  5  6  1  0
  6  7  1  0
  7  8  1  0
  8  9  1  0
  9 10  1  0
 10 11  1  0
  1 12  1  0
  1 13  1  0
  1 14  1  0
  2 15  1  0
  2 16  1  0
  4 17  1  0
  4 18  1  0
  5 19  1  0
  5 20  1  0
  7 21  1  0
  7 22  1  0
  8 23  1  0
  8 24  1  0
 10 25  1  0
 10 26  1  0
 11 27  1  0
 11 28  1  0
 11 29  1  0
M  END
>  <anchor_atom_maps>  (2) 
1,2

>  <distance_A>  (2) 
10.589604883097262

>  <Rg_A>  (2) 
3.618586660205244

>  <energy_kcal_mol>  (2) 
47.67573341582957

>  <ensemble>  (2) 
ETKDGv3 unweighted sampling; not a thermodynamic population

$$$$
Flexible PEG synthetic attachment-point proxy 2
     RDKit          3D

 29 28  0  0  0  0  0  0  0  0999 V2000
    3.9083    1.9472   -0.2171 C   0  0  0  0  0  0  0  0  0  1  0  0
    3.8491    0.4327   -0.2056 C   0  0  0  0  0  0  0  0  0  0  0  0
    2.5019    0.0331   -0.4429 O   0  0  0  0  0  0  0  0  0  0  0  0
    2.3696   -1.3934   -0.4634 C   0  0  0  0  0  0  0  0  0  0  0  0
    0.8940   -1.7574   -0.6168 C   0  0  0  0  0  0  0  0  0  0  0  0
    0.2315   -1.5838    0.6412 O   0  0  0  0  0  0  0  0  0  0  0  0
   -1.1876   -1.6884    0.5353 C   0  0  0  0  0  0  0  0  0  0  0  0
   -1.8240   -0.3430    0.1891 C   0  0  0  0  0  0  0  0  0  0  0  0
   -3.2400   -0.5048    0.1006 O   0  0  0  0  0  0  0  0  0  0  0  0
   -3.9227    0.7041   -0.2259 C   0  0  0  0  0  0  0  0  0  0  0  0
   -4.1112    1.5834    0.9974 C   0  0  0  0  0  0  0  0  0  2  0  0
    3.2498    2.3647    0.5518 H   0  0  0  0  0  0  0  0  0  0  0  0
    4.9280    2.2993   -0.0378 H   0  0  0  0  0  0  0  0  0  0  0  0
    3.5629    2.3393   -1.1794 H   0  0  0  0  0  0  0  0  0  0  0  0
    4.4989    0.0283   -0.9894 H   0  0  0  0  0  0  0  0  0  0  0  0
    4.1813    0.0551    0.7676 H   0  0  0  0  0  0  0  0  0  0  0  0
    2.9348   -1.7815   -1.3176 H   0  0  0  0  0  0  0  0  0  0  0  0
    2.7703   -1.8110    0.4672 H   0  0  0  0  0  0  0  0  0  0  0  0
    0.8022   -2.8096   -0.9064 H   0  0  0  0  0  0  0  0  0  0  0  0
    0.4295   -1.1253   -1.3807 H   0  0  0  0  0  0  0  0  0  0  0  0
   -1.4762   -2.4654   -0.1834 H   0  0  0  0  0  0  0  0  0  0  0  0
   -1.5665   -2.0185    1.5093 H   0  0  0  0  0  0  0  0  0  0  0  0
   -1.5645    0.3893    0.9612 H   0  0  0  0  0  0  0  0  0  0  0  0
   -1.4366    0.0289   -0.7655 H   0  0  0  0  0  0  0  0  0  0  0  0
   -4.9076    0.4182   -0.6097 H   0  0  0  0  0  0  0  0  0  0  0  0
   -3.4028    1.2404   -1.0277 H   0  0  0  0  0  0  0  0  0  0  0  0
   -4.7367    2.4481    0.7572 H   0  0  0  0  0  0  0  0  0  0  0  0
   -4.5828    1.0195    1.8087 H   0  0  0  0  0  0  0  0  0  0  0  0
   -3.1529    1.9506    1.3762 H   0  0  0  0  0  0  0  0  0  0  0  0
  1  2  1  0
  2  3  1  0
  3  4  1  0
  4  5  1  0
  5  6  1  0
  6  7  1  0
  7  8  1  0
  8  9  1  0
  9 10  1  0
 10 11  1  0
  1 12  1  0
  1 13  1  0
  1 14  1  0
  2 15  1  0
  2 16  1  0
  4 17  1  0
  4 18  1  0
  5 19  1  0
  5 20  1  0
  7 21  1  0
  7 22  1  0
  8 23  1  0
  8 24  1  0
 10 25  1  0
 10 26  1  0
 11 27  1  0
 11 28  1  0
 11 29  1  0
M  END
>  <anchor_atom_maps>  (3) 
1,2

>  <distance_A>  (3) 
8.119098257890425

>  <Rg_A>  (3) 
3.2167228753943973

>  <energy_kcal_mol>  (3) 
47.755013017862865

>  <ensemble>  (3) 
ETKDGv3 unweighted sampling; not a thermodynamic population

$$$$
Flexible PEG synthetic attachment-point proxy 3
     RDKit          3D

 29 28  0  0  0  0  0  0  0  0999 V2000
    4.7207    1.6592    0.7936 C   0  0  0  0  0  0  0  0  0  1  0  0
    3.8497    0.8334    1.7234 C   0  0  0  0  0  0  0  0  0  0  0  0
    2.4773    1.2095    1.6272 O   0  0  0  0  0  0  0  0  0  0  0  0
    1.8190    0.6434    0.4939 C   0  0  0  0  0  0  0  0  0  0  0  0
    0.3487    1.0473    0.5157 C   0  0  0  0  0  0  0  0  0  0  0  0
   -0.3124    0.4869   -0.6170 O   0  0  0  0  0  0  0  0  0  0  0  0
   -1.7008    0.8294   -0.6432 C   0  0  0  0  0  0  0  0  0  0  0  0
   -2.3720    0.1747   -1.8545 C   0  0  0  0  0  0  0  0  0  0  0  0
   -2.4101   -1.2543   -1.7798 O   0  0  0  0  0  0  0  0  0  0  0  0
   -3.3972   -1.7554   -0.8844 C   0  0  0  0  0  0  0  0  0  0  0  0
   -3.4056   -3.2685   -0.9851 C   0  0  0  0  0  0  0  0  0  2  0  0
    4.4970    1.4465   -0.2558 H   0  0  0  0  0  0  0  0  0  0  0  0
    5.7794    1.4449    0.9665 H   0  0  0  0  0  0  0  0  0  0  0  0
    4.5457    2.7287    0.9496 H   0  0  0  0  0  0  0  0  0  0  0  0
    3.9724   -0.2397    1.5380 H   0  0  0  0  0  0  0  0  0  0  0  0
    4.1583    1.0231    2.7567 H   0  0  0  0  0  0  0  0  0  0  0  0
    1.9013   -0.4498    0.5164 H   0  0  0  0  0  0  0  0  0  0  0  0
    2.2804    0.9950   -0.4351 H   0  0  0  0  0  0  0  0  0  0  0  0
    0.2628    2.1404    0.4980 H   0  0  0  0  0  0  0  0  0  0  0  0
   -0.1198    0.6899    1.4406 H   0  0  0  0  0  0  0  0  0  0  0  0
   -2.1696    0.5035    0.2901 H   0  0  0  0  0  0  0  0  0  0  0  0
   -1.7933    1.9181   -0.7265 H   0  0  0  0  0  0  0  0  0  0  0  0
   -3.3875    0.5628   -1.9914 H   0  0  0  0  0  0  0  0  0  0  0  0
   -1.7976    0.4177   -2.7549 H   0  0  0  0  0  0  0  0  0  0  0  0
   -3.1632   -1.4615    0.1429 H   0  0  0  0  0  0  0  0  0  0  0  0
   -4.3825   -1.3618   -1.1565 H   0  0  0  0  0  0  0  0  0  0  0  0
   -2.4223   -3.6774   -0.7296 H   0  0  0  0  0  0  0  0  0  0  0  0
   -3.6262   -3.5857   -2.0098 H   0  0  0  0  0  0  0  0  0  0  0  0
   -4.1528   -3.7002   -0.3134 H   0  0  0  0  0  0  0  0  0  0  0  0
  1  2  1  0
  2  3  1  0
  3  4  1  0
  4  5  1  0
  5  6  1  0
  6  7  1  0
  7  8  1  0
  8  9  1  0
  9 10  1  0
 10 11  1  0
  1 12  1  0
  1 13  1  0
  1 14  1  0
  2 15  1  0
  2 16  1  0
  4 17  1  0
  4 18  1  0
  5 19  1  0
  5 20  1  0
  7 21  1  0
  7 22  1  0
  8 23  1  0
  8 24  1  0
 10 25  1  0
 10 26  1  0
 11 27  1  0
 11 28  1  0
 11 29  1  0
M  END
>  <anchor_atom_maps>  (4) 
1,2

>  <distance_A>  (4) 
9.668698034601283

>  <Rg_A>  (4) 
3.3901691868867734

>  <energy_kcal_mol>  (4) 
48.42199721396689

>  <ensemble>  (4) 
ETKDGv3 unweighted sampling; not a thermodynamic population

$$$$
Flexible PEG synthetic attachment-point proxy 4
     RDKit          3D

 29 28  0  0  0  0  0  0  0  0999 V2000
    5.0969    0.8526   -0.4280 C   0  0  0  0  0  0  0  0  0  1  0  0
    4.2275    0.1283    0.5842 C   0  0  0  0  0  0  0  0  0  0  0  0
    3.1946   -0.6196   -0.0543 O   0  0  0  0  0  0  0  0  0  0  0  0
    2.0765    0.1787   -0.4400 C   0  0  0  0  0  0  0  0  0  0  0  0
    1.0214   -0.7181   -1.0870 C   0  0  0  0  0  0  0  0  0  0  0  0
   -0.1179    0.0341   -1.5071 O   0  0  0  0  0  0  0  0  0  0  0  0
   -1.0967    0.2155   -0.4834 C   0  0  0  0  0  0  0  0  0  0  0  0
   -2.0680   -0.9656   -0.4204 C   0  0  0  0  0  0  0  0  0  0  0  0
   -3.0389   -0.8025    0.6137 O   0  0  0  0  0  0  0  0  0  0  0  0
   -4.1457    0.0045    0.2173 C   0  0  0  0  0  0  0  0  0  0  0  0
   -5.1183    0.0813    1.3778 C   0  0  0  0  0  0  0  0  0  2  0  0
    5.9523    1.3229    0.0657 H   0  0  0  0  0  0  0  0  0  0  0  0
    4.5348    1.6317   -0.9514 H   0  0  0  0  0  0  0  0  0  0  0  0
    5.4655    0.1563   -1.1882 H   0  0  0  0  0  0  0  0  0  0  0  0
    3.8064    0.8232    1.3194 H   0  0  0  0  0  0  0  0  0  0  0  0
    4.8470   -0.5899    1.1314 H   0  0  0  0  0  0  0  0  0  0  0  0
    2.3805    0.9526   -1.1530 H   0  0  0  0  0  0  0  0  0  0  0  0
    1.6606    0.6816    0.4399 H   0  0  0  0  0  0  0  0  0  0  0  0
    0.7403   -1.5416   -0.4207 H   0  0  0  0  0  0  0  0  0  0  0  0
    1.4533   -1.1839   -1.9802 H   0  0  0  0  0  0  0  0  0  0  0  0
   -0.6332    0.3958    0.4933 H   0  0  0  0  0  0  0  0  0  0  0  0
   -1.6471    1.1287   -0.7309 H   0  0  0  0  0  0  0  0  0  0  0  0
   -1.5141   -1.8827   -0.1949 H   0  0  0  0  0  0  0  0  0  0  0  0
   -2.5488   -1.1353   -1.3916 H   0  0  0  0  0  0  0  0  0  0  0  0
   -3.8069    1.0114   -0.0448 H   0  0  0  0  0  0  0  0  0  0  0  0
   -4.6402   -0.4460   -0.6502 H   0  0  0  0  0  0  0  0  0  0  0  0
   -5.9887    0.6902    1.1178 H   0  0  0  0  0  0  0  0  0  0  0  0
   -4.6337    0.5152    2.2587 H   0  0  0  0  0  0  0  0  0  0  0  0
   -5.4593   -0.9196    1.6623 H   0  0  0  0  0  0  0  0  0  0  0  0
  1  2  1  0
  2  3  1  0
  3  4  1  0
  4  5  1  0
  5  6  1  0
  6  7  1  0
  7  8  1  0
  8  9  1  0
  9 10  1  0
 10 11  1  0
  1 12  1  0
  1 13  1  0
  1 14  1  0
  2 15  1  0
  2 16  1  0
  4 17  1  0
  4 18  1  0
  5 19  1  0
  5 20  1  0
  7 21  1  0
  7 22  1  0
  8 23  1  0
  8 24  1  0
 10 25  1  0
 10 26  1  0
 11 27  1  0
 11 28  1  0
 11 29  1  0
M  END
>  <anchor_atom_maps>  (5) 
1,2

>  <distance_A>  (5) 
10.40219830799115

>  <Rg_A>  (5) 
3.453783912048257

>  <energy_kcal_mol>  (5) 
49.20736236537122

>  <ensemble>  (5) 
ETKDGv3 unweighted sampling; not a thermodynamic population

$$$$
Flexible PEG synthetic attachment-point proxy 5
     RDKit          3D

 29 28  0  0  0  0  0  0  0  0999 V2000
    4.7266   -0.0066   -0.5439 C   0  0  0  0  0  0  0  0  0  1  0  0
    3.3545    0.3599   -1.0810 C   0  0  0  0  0  0  0  0  0  0  0  0
    2.6112    1.1704   -0.1756 O   0  0  0  0  0  0  0  0  0  0  0  0
    2.2076    0.5446    1.0437 C   0  0  0  0  0  0  0  0  0  0  0  0
    1.3135   -0.6910    0.8721 C   0  0  0  0  0  0  0  0  0  0  0  0
    0.2149   -0.5049   -0.0212 O   0  0  0  0  0  0  0  0  0  0  0  0
   -0.7201    0.4859    0.4172 C   0  0  0  0  0  0  0  0  0  0  0  0
   -1.9900    0.3894   -0.4286 C   0  0  0  0  0  0  0  0  0  0  0  0
   -2.7696   -0.7265    0.0181 O   0  0  0  0  0  0  0  0  0  0  0  0
   -3.8634   -1.0337   -0.8425 C   0  0  0  0  0  0  0  0  0  0  0  0
   -5.0056   -0.0466   -0.6803 C   0  0  0  0  0  0  0  0  0  2  0  0
    4.6504   -0.6958    0.3025 H   0  0  0  0  0  0  0  0  0  0  0  0
    5.3260   -0.4913   -1.3202 H   0  0  0  0  0  0  0  0  0  0  0  0
    5.2557    0.8846   -0.1915 H   0  0  0  0  0  0  0  0  0  0  0  0
    3.4842    0.9532   -1.9925 H   0  0  0  0  0  0  0  0  0  0  0  0
    2.7867   -0.5307   -1.3669 H   0  0  0  0  0  0  0  0  0  0  0  0
    3.0882    0.2973    1.6458 H   0  0  0  0  0  0  0  0  0  0  0  0
    1.6602    1.3089    1.6057 H   0  0  0  0  0  0  0  0  0  0  0  0
    1.9045   -1.5181    0.4659 H   0  0  0  0  0  0  0  0  0  0  0  0
    0.9381   -1.0248    1.8466 H   0  0  0  0  0  0  0  0  0  0  0  0
   -0.9574    0.3301    1.4756 H   0  0  0  0  0  0  0  0  0  0  0  0
   -0.2727    1.4748    0.2772 H   0  0  0  0  0  0  0  0  0  0  0  0
   -2.5779    1.3031   -0.2984 H   0  0  0  0  0  0  0  0  0  0  0  0
   -1.7306    0.2609   -1.4854 H   0  0  0  0  0  0  0  0  0  0  0  0
   -4.2166   -2.0313   -0.5611 H   0  0  0  0  0  0  0  0  0  0  0  0
   -3.5298   -1.0895   -1.8847 H   0  0  0  0  0  0  0  0  0  0  0  0
   -5.8806   -0.3736   -1.2496 H   0  0  0  0  0  0  0  0  0  0  0  0
   -5.2845    0.0519    0.3737 H   0  0  0  0  0  0  0  0  0  0  0  0
   -4.7232    0.9495   -1.0341 H   0  0  0  0  0  0  0  0  0  0  0  0
  1  2  1  0
  2  3  1  0
  3  4  1  0
  4  5  1  0
  5  6  1  0
  6  7  1  0
  7  8  1  0
  8  9  1  0
  9 10  1  0
 10 11  1  0
  1 12  1  0
  1 13  1  0
  1 14  1  0
  2 15  1  0
  2 16  1  0
  4 17  1  0
  4 18  1  0
  5 19  1  0
  5 20  1  0
  7 21  1  0
  7 22  1  0
  8 23  1  0
  8 24  1  0
 10 25  1  0
 10 26  1  0
 11 27  1  0
 11 28  1  0
 11 29  1  0
M  END
>  <anchor_atom_maps>  (6) 
1,2

>  <distance_A>  (6) 
9.73324331741977

>  <Rg_A>  (6) 
3.1953439114486337

>  <energy_kcal_mol>  (6) 
52.45300475538478

>  <ensemble>  (6) 
ETKDGv3 unweighted sampling; not a thermodynamic population

$$$$
Flexible PEG synthetic attachment-point proxy 6
     RDKit          3D

 29 28  0  0  0  0  0  0  0  0999 V2000
   -4.4389    0.8621   -1.2524 C   0  0  0  0  0  0  0  0  0  1  0  0
   -4.0655    0.4501    0.1606 C   0  0  0  0  0  0  0  0  0  0  0  0
   -3.0519   -0.5534    0.1422 O   0  0  0  0  0  0  0  0  0  0  0  0
   -1.7245   -0.0342    0.0526 C   0  0  0  0  0  0  0  0  0  0  0  0
   -1.1617    0.2942    1.4372 C   0  0  0  0  0  0  0  0  0  0  0  0
    0.1613    0.8212    1.3552 O   0  0  0  0  0  0  0  0  0  0  0  0
    1.1674   -0.1965    1.3207 C   0  0  0  0  0  0  0  0  0  0  0  0
    2.5364    0.4464    1.0784 C   0  0  0  0  0  0  0  0  0  0  0  0
    2.6633    0.9365   -0.2615 O   0  0  0  0  0  0  0  0  0  0  0  0
    3.0678   -0.0448   -1.2119 C   0  0  0  0  0  0  0  0  0  0  0  0
    4.5813   -0.1607   -1.2503 C   0  0  0  0  0  0  0  0  0  2  0  0
   -5.2729    1.5697   -1.2406 H   0  0  0  0  0  0  0  0  0  0  0  0
   -4.7266   -0.0129   -1.8444 H   0  0  0  0  0  0  0  0  0  0  0  0
   -3.5949    1.3313   -1.7668 H   0  0  0  0  0  0  0  0  0  0  0  0
   -4.9432    0.0092    0.6444 H   0  0  0  0  0  0  0  0  0  0  0  0
   -3.7611    1.3156    0.7582 H   0  0  0  0  0  0  0  0  0  0  0  0
   -1.1114   -0.8094   -0.4181 H   0  0  0  0  0  0  0  0  0  0  0  0
   -1.6713    0.8373   -0.6097 H   0  0  0  0  0  0  0  0  0  0  0  0
   -1.2010   -0.5794    2.0995 H   0  0  0  0  0  0  0  0  0  0  0  0
   -1.7829    1.0611    1.9114 H   0  0  0  0  0  0  0  0  0  0  0  0
    0.9369   -0.9205    0.5343 H   0  0  0  0  0  0  0  0  0  0  0  0
    1.1734   -0.7068    2.2900 H   0  0  0  0  0  0  0  0  0  0  0  0
    3.3404   -0.2618    1.3038 H   0  0  0  0  0  0  0  0  0  0  0  0
    2.6530    1.3125    1.7384 H   0  0  0  0  0  0  0  0  0  0  0  0
    2.6032   -1.0154   -1.0102 H   0  0  0  0  0  0  0  0  0  0  0  0
    2.7133    0.2921   -2.1915 H   0  0  0  0  0  0  0  0  0  0  0  0
    4.9775   -0.5177   -0.2950 H   0  0  0  0  0  0  0  0  0  0  0  0
    4.8958   -0.8538   -2.0357 H   0  0  0  0  0  0  0  0  0  0  0  0
    5.0369    0.8170   -1.4389 H   0  0  0  0  0  0  0  0  0  0  0  0
  1  2  1  0
  2  3  1  0
  3  4  1  0
  4  5  1  0
  5  6  1  0
  6  7  1  0
  7  8  1  0
  8  9  1  0
  9 10  1  0
 10 11  1  0
  1 12  1  0
  1 13  1  0
  1 14  1  0
  2 15  1  0
  2 16  1  0
  4 17  1  0
  4 18  1  0
  5 19  1  0
  5 20  1  0
  7 21  1  0
  7 22  1  0
  8 23  1  0
  8 24  1  0
 10 25  1  0
 10 26  1  0
 11 27  1  0
 11 28  1  0
 11 29  1  0
M  END
>  <anchor_atom_maps>  (7) 
1,2

>  <distance_A>  (7) 
9.077965372455372

>  <Rg_A>  (7) 
3.2011361339862825

>  <energy_kcal_mol>  (7) 
52.89007592812017

>  <ensemble>  (7) 
ETKDGv3 unweighted sampling; not a thermodynamic population

$$$$
Flexible PEG synthetic attachment-point proxy 7
     RDKit          3D

 29 28  0  0  0  0  0  0  0  0999 V2000
    5.5789   -0.3150   -0.3103 C   0  0  0  0  0  0  0  0  0  1  0  0
    4.1721   -0.8343   -0.5314 C   0  0  0  0  0  0  0  0  0  0  0  0
    3.2575    0.0603    0.0978 O   0  0  0  0  0  0  0  0  0  0  0  0
    1.9064   -0.3699   -0.0689 C   0  0  0  0  0  0  0  0  0  0  0  0
    0.9712    0.6260    0.6070 C   0  0  0  0  0  0  0  0  0  0  0  0
   -0.3769    0.1828    0.4598 O   0  0  0  0  0  0  0  0  0  0  0  0
   -1.2992    1.0957    1.0663 C   0  0  0  0  0  0  0  0  0  0  0  0
   -2.7285    0.6175    0.8122 C   0  0  0  0  0  0  0  0  0  0  0  0
   -3.0970    0.9216   -0.5377 O   0  0  0  0  0  0  0  0  0  0  0  0
   -4.3896    0.4356   -0.8896 C   0  0  0  0  0  0  0  0  0  0  0  0
   -4.3336   -1.0239   -1.3039 C   0  0  0  0  0  0  0  0  0  2  0  0
    5.7990   -0.2418    0.7599 H   0  0  0  0  0  0  0  0  0  0  0  0
    5.6884    0.6914   -0.7275 H   0  0  0  0  0  0  0  0  0  0  0  0
    6.3160   -0.9735   -0.7782 H   0  0  0  0  0  0  0  0  0  0  0  0
    4.0715   -1.8341   -0.0951 H   0  0  0  0  0  0  0  0  0  0  0  0
    3.9594   -0.8869   -1.6048 H   0  0  0  0  0  0  0  0  0  0  0  0
    1.7725   -1.3646    0.3730 H   0  0  0  0  0  0  0  0  0  0  0  0
    1.6627   -0.4423   -1.1357 H   0  0  0  0  0  0  0  0  0  0  0  0
    1.0951    1.6164    0.1527 H   0  0  0  0  0  0  0  0  0  0  0  0
    1.2237    0.7119    1.6706 H   0  0  0  0  0  0  0  0  0  0  0  0
   -1.1069    1.1183    2.1444 H   0  0  0  0  0  0  0  0  0  0  0  0
   -1.1530    2.0959    0.6430 H   0  0  0  0  0  0  0  0  0  0  0  0
   -3.4139    1.1453    1.4841 H   0  0  0  0  0  0  0  0  0  0  0  0
   -2.7989   -0.4606    0.9871 H   0  0  0  0  0  0  0  0  0  0  0  0
   -4.7329    1.0314   -1.7417 H   0  0  0  0  0  0  0  0  0  0  0  0
   -5.1019    0.5924   -0.0717 H   0  0  0  0  0  0  0  0  0  0  0  0
   -5.3079   -1.3573   -1.6731 H   0  0  0  0  0  0  0  0  0  0  0  0
   -3.5872   -1.1723   -2.0911 H   0  0  0  0  0  0  0  0  0  0  0  0
   -4.0470   -1.6661   -0.4660 H   0  0  0  0  0  0  0  0  0  0  0  0
  1  2  1  0
  2  3  1  0
  3  4  1  0
  4  5  1  0
  5  6  1  0
  6  7  1  0
  7  8  1  0
  8  9  1  0
  9 10  1  0
 10 11  1  0
  1 12  1  0
  1 13  1  0
  1 14  1  0
  2 15  1  0
  2 16  1  0
  4 17  1  0
  4 18  1  0
  5 19  1  0
  5 20  1  0
  7 21  1  0
  7 22  1  0
  8 23  1  0
  8 24  1  0
 10 25  1  0
 10 26  1  0
 11 27  1  0
 11 28  1  0
 11 29  1  0
M  END
>  <anchor_atom_maps>  (8) 
1,2

>  <distance_A>  (8) 
9.987350763829578

>  <Rg_A>  (8) 
3.501832735103837

>  <energy_kcal_mol>  (8) 
46.434920732593696

>  <ensemble>  (8) 
ETKDGv3 unweighted sampling; not a thermodynamic population

$$$$
Flexible PEG synthetic attachment-point proxy 8
     RDKit          3D

 29 28  0  0  0  0  0  0  0  0999 V2000
    5.2047    0.3360   -0.5039 C   0  0  0  0  0  0  0  0  0  1  0  0
    3.7169    0.0542   -0.5818 C   0  0  0  0  0  0  0  0  0  0  0  0
    3.3726   -0.8291    0.4823 O   0  0  0  0  0  0  0  0  0  0  0  0
    1.9962   -1.2097    0.4786 C   0  0  0  0  0  0  0  0  0  0  0  0
    1.0920   -0.1305    1.0785 C   0  0  0  0  0  0  0  0  0  0  0  0
   -0.2622   -0.5624    1.2093 O   0  0  0  0  0  0  0  0  0  0  0  0
   -0.9878   -0.5533   -0.0237 C   0  0  0  0  0  0  0  0  0  0  0  0
   -2.4651   -0.8584    0.2490 C   0  0  0  0  0  0  0  0  0  0  0  0
   -3.1248    0.2306    0.9034 O   0  0  0  0  0  0  0  0  0  0  0  0
   -3.5984    1.2477    0.0258 C   0  0  0  0  0  0  0  0  0  0  0  0
   -4.9794    0.8997   -0.5010 C   0  0  0  0  0  0  0  0  0  2  0  0
    5.7780   -0.5938   -0.5810 H   0  0  0  0  0  0  0  0  0  0  0  0
    5.5166    1.0106   -1.3062 H   0  0  0  0  0  0  0  0  0  0  0  0
    5.4612    0.7896    0.4592 H   0  0  0  0  0  0  0  0  0  0  0  0
    3.1615    0.9925   -0.4908 H   0  0  0  0  0  0  0  0  0  0  0  0
    3.4790   -0.4129   -1.5436 H   0  0  0  0  0  0  0  0  0  0  0  0
    1.6834   -1.4888   -0.5336 H   0  0  0  0  0  0  0  0  0  0  0  0
    1.9077   -2.1191    1.0838 H   0  0  0  0  0  0  0  0  0  0  0  0
    1.1370    0.8040    0.5086 H   0  0  0  0  0  0  0  0  0  0  0  0
    1.4545    0.1130    2.0837 H   0  0  0  0  0  0  0  0  0  0  0  0
   -0.5815   -1.3289   -0.6800 H   0  0  0  0  0  0  0  0  0  0  0  0
   -0.8759    0.4243   -0.5027 H   0  0  0  0  0  0  0  0  0  0  0  0
   -2.9830   -1.1139   -0.6813 H   0  0  0  0  0  0  0  0  0  0  0  0
   -2.5391   -1.7176    0.9240 H   0  0  0  0  0  0  0  0  0  0  0  0
   -2.8975    1.4282   -0.7957 H   0  0  0  0  0  0  0  0  0  0  0  0
   -3.6645    2.1710    0.6105 H   0  0  0  0  0  0  0  0  0  0  0  0
   -5.3778    1.7167   -1.1095 H   0  0  0  0  0  0  0  0  0  0  0  0
   -4.9552   -0.0071   -1.1126 H   0  0  0  0  0  0  0  0  0  0  0  0
   -5.6693    0.7074    0.3273 H   0  0  0  0  0  0  0  0  0  0  0  0
  1  2  1  0
  2  3  1  0
  3  4  1  0
  4  5  1  0
  5  6  1  0
  6  7  1  0
  7  8  1  0
  8  9  1  0
  9 10  1  0
 10 11  1  0
  1 12  1  0
  1 13  1  0
  1 14  1  0
  2 15  1  0
  2 16  1  0
  4 17  1  0
  4 18  1  0
  5 19  1  0
  5 20  1  0
  7 21  1  0
  7 22  1  0
  8 23  1  0
  8 24  1  0
 10 25  1  0
 10 26  1  0
 11 27  1  0
 11 28  1  0
 11 29  1  0
M  END
>  <anchor_atom_maps>  (9) 
1,2

>  <distance_A>  (9) 
10.199667229921557

>  <Rg_A>  (9) 
3.384432051665826

>  <energy_kcal_mol>  (9) 
52.62634188499792

>  <ensemble>  (9) 
ETKDGv3 unweighted sampling; not a thermodynamic population

$$$$
Flexible PEG synthetic attachment-point proxy 9
     RDKit          3D

 29 28  0  0  0  0  0  0  0  0999 V2000
    4.5650    0.2983   -0.9965 C   0  0  0  0  0  0  0  0  0  1  0  0
    3.4911    0.3288    0.0737 C   0  0  0  0  0  0  0  0  0  0  0  0
    2.6421   -0.7996   -0.1142 O   0  0  0  0  0  0  0  0  0  0  0  0
    1.6894   -0.9823    0.9352 C   0  0  0  0  0  0  0  0  0  0  0  0
    0.6471    0.1387    1.0479 C   0  0  0  0  0  0  0  0  0  0  0  0
    0.0252    0.5052   -0.1835 O   0  0  0  0  0  0  0  0  0  0  0  0
   -0.6666   -0.5338   -0.8758 C   0  0  0  0  0  0  0  0  0  0  0  0
   -1.7979   -1.1975   -0.0786 C   0  0  0  0  0  0  0  0  0  0  0  0
   -2.6960   -0.2794    0.5482 O   0  0  0  0  0  0  0  0  0  0  0  0
   -3.4495    0.5033   -0.3732 C   0  0  0  0  0  0  0  0  0  0  0  0
   -4.4864    1.2876    0.4072 C   0  0  0  0  0  0  0  0  0  2  0  0
    5.1471   -0.6270   -0.9322 H   0  0  0  0  0  0  0  0  0  0  0  0
    5.2431    1.1500   -0.8932 H   0  0  0  0  0  0  0  0  0  0  0  0
    4.1153    0.3233   -1.9947 H   0  0  0  0  0  0  0  0  0  0  0  0
    2.9135    1.2535   -0.0198 H   0  0  0  0  0  0  0  0  0  0  0  0
    3.9545    0.2891    1.0655 H   0  0  0  0  0  0  0  0  0  0  0  0
    1.1845   -1.9307    0.7259 H   0  0  0  0  0  0  0  0  0  0  0  0
    2.2149   -1.1100    1.8888 H   0  0  0  0  0  0  0  0  0  0  0  0
   -0.1160   -0.1233    1.7884 H   0  0  0  0  0  0  0  0  0  0  0  0
    1.1325    1.0464    1.4216 H   0  0  0  0  0  0  0  0  0  0  0  0
   -1.0836   -0.0699   -1.7758 H   0  0  0  0  0  0  0  0  0  0  0  0
    0.0460   -1.2880   -1.2264 H   0  0  0  0  0  0  0  0  0  0  0  0
   -2.3636   -1.8830   -0.7202 H   0  0  0  0  0  0  0  0  0  0  0  0
   -1.3704   -1.8028    0.7271 H   0  0  0  0  0  0  0  0  0  0  0  0
   -3.9467   -0.1478   -1.1004 H   0  0  0  0  0  0  0  0  0  0  0  0
   -2.7910    1.1999   -0.9010 H   0  0  0  0  0  0  0  0  0  0  0  0
   -4.0041    1.9332    1.1486 H   0  0  0  0  0  0  0  0  0  0  0  0
   -5.1486    0.6105    0.9570 H   0  0  0  0  0  0  0  0  0  0  0  0
   -5.0910    1.9074   -0.2608 H   0  0  0  0  0  0  0  0  0  0  0  0
  1  2  1  0
  2  3  1  0
  3  4  1  0
  4  5  1  0
  5  6  1  0
  6  7  1  0
  7  8  1  0
  8  9  1  0
  9 10  1  0
 10 11  1  0
  1 12  1  0
  1 13  1  0
  1 14  1  0
  2 15  1  0
  2 16  1  0
  4 17  1  0
  4 18  1  0
  5 19  1  0
  5 20  1  0
  7 21  1  0
  7 22  1  0
  8 23  1  0
  8 24  1  0
 10 25  1  0
 10 26  1  0
 11 27  1  0
 11 28  1  0
 11 29  1  0
M  END
>  <anchor_atom_maps>  (10) 
1,2

>  <distance_A>  (10) 
9.212867072637389

>  <Rg_A>  (10) 
3.0183857537999246

>  <energy_kcal_mol>  (10) 
51.92670580477809

>  <ensemble>  (10) 
ETKDGv3 unweighted sampling; not a thermodynamic population

$$$$
Flexible PEG synthetic attachment-point proxy 10
     RDKit          3D

 29 28  0  0  0  0  0  0  0  0999 V2000
    5.2592    0.8731    0.0463 C   0  0  0  0  0  0  0  0  0  1  0  0
    4.0385    0.0424   -0.2984 C   0  0  0  0  0  0  0  0  0  0  0  0
    3.0902    0.1814    0.7576 O   0  0  0  0  0  0  0  0  0  0  0  0
    1.9092   -0.5948    0.5536 C   0  0  0  0  0  0  0  0  0  0  0  0
    0.9107    0.1085   -0.3680 C   0  0  0  0  0  0  0  0  0  0  0  0
   -0.2777   -0.6586   -0.5563 O   0  0  0  0  0  0  0  0  0  0  0  0
   -1.2264   -0.4993    0.5013 C   0  0  0  0  0  0  0  0  0  0  0  0
   -2.4952   -1.2991    0.1855 C   0  0  0  0  0  0  0  0  0  0  0  0
   -3.1796   -0.8983   -1.0042 O   0  0  0  0  0  0  0  0  0  0  0  0
   -3.6839    0.4320   -1.0331 C   0  0  0  0  0  0  0  0  0  0  0  0
   -4.7882    0.6652   -0.0176 C   0  0  0  0  0  0  0  0  0  2  0  0
    6.0184    0.7947   -0.7369 H   0  0  0  0  0  0  0  0  0  0  0  0
    4.9863    1.9263    0.1700 H   0  0  0  0  0  0  0  0  0  0  0  0
    5.6948    0.5431    0.9952 H   0  0  0  0  0  0  0  0  0  0  0  0
    3.6105    0.3942   -1.2420 H   0  0  0  0  0  0  0  0  0  0  0  0
    4.3250   -1.0097   -0.4030 H   0  0  0  0  0  0  0  0  0  0  0  0
    1.4563   -0.7417    1.5392 H   0  0  0  0  0  0  0  0  0  0  0  0
    2.1541   -1.5970    0.1814 H   0  0  0  0  0  0  0  0  0  0  0  0
    1.3587    0.2419   -1.3577 H   0  0  0  0  0  0  0  0  0  0  0  0
    0.6775    1.1166   -0.0042 H   0  0  0  0  0  0  0  0  0  0  0  0
   -1.4563    0.5630    0.6278 H   0  0  0  0  0  0  0  0  0  0  0  0
   -0.7975   -0.8762    1.4353 H   0  0  0  0  0  0  0  0  0  0  0  0
   -3.1860   -1.2746    1.0342 H   0  0  0  0  0  0  0  0  0  0  0  0
   -2.2176   -2.3474    0.0294 H   0  0  0  0  0  0  0  0  0  0  0  0
   -2.8748    1.1591   -0.9172 H   0  0  0  0  0  0  0  0  0  0  0  0
   -4.0965    0.5844   -2.0363 H   0  0  0  0  0  0  0  0  0  0  0  0
   -5.2597    1.6390   -0.1799 H   0  0  0  0  0  0  0  0  0  0  0  0
   -4.3977    0.6471    1.0044 H   0  0  0  0  0  0  0  0  0  0  0  0
   -5.5523   -0.1154   -0.0888 H   0  0  0  0  0  0  0  0  0  0  0  0
  1  2  1  0
  2  3  1  0
  3  4  1  0
  4  5  1  0
  5  6  1  0
  6  7  1  0
  7  8  1  0
  8  9  1  0
  9 10  1  0
 10 11  1  0
  1 12  1  0
  1 13  1  0
  1 14  1  0
  2 15  1  0
  2 16  1  0
  4 17  1  0
  4 18  1  0
  5 19  1  0
  5 20  1  0
  7 21  1  0
  7 22  1  0
  8 23  1  0
  8 24  1  0
 10 25  1  0
 10 26  1  0
 11 27  1  0
 11 28  1  0
 11 29  1  0
M  END
>  <anchor_atom_maps>  (11) 
1,2

>  <distance_A>  (11) 
10.049773113926028

>  <Rg_A>  (11) 
3.3664584602022036

>  <energy_kcal_mol>  (11) 
52.065193663991266

>  <ensemble>  (11) 
ETKDGv3 unweighted sampling; not a thermodynamic population

$$$$
Flexible PEG synthetic attachment-point proxy 11
     RDKit          3D

 29 28  0  0  0  0  0  0  0  0999 V2000
    4.7609    0.4838   -0.4008 C   0  0  0  0  0  0  0  0  0  1  0  0
    3.5188    0.1965    0.4237 C   0  0  0  0  0  0  0  0  0  0  0  0
    2.3428    0.3713   -0.3633 O   0  0  0  0  0  0  0  0  0  0  0  0
    1.9566   -0.7917   -1.1077 C   0  0  0  0  0  0  0  0  0  0  0  0
    1.1027   -1.7458   -0.2630 C   0  0  0  0  0  0  0  0  0  0  0  0
   -0.2865   -1.4024   -0.2350 O   0  0  0  0  0  0  0  0  0  0  0  0
   -0.5581   -0.1549    0.4145 C   0  0  0  0  0  0  0  0  0  0  0  0
   -2.0683   -0.0067    0.6101 C   0  0  0  0  0  0  0  0  0  0  0  0
   -2.6853    0.3134   -0.6418 O   0  0  0  0  0  0  0  0  0  0  0  0
   -4.1091    0.2810   -0.5981 C   0  0  0  0  0  0  0  0  0  0  0  0
   -4.6813    1.5058    0.0930 C   0  0  0  0  0  0  0  0  0  2  0  0
    4.7032    1.4821   -0.8471 H   0  0  0  0  0  0  0  0  0  0  0  0
    5.6590    0.4268    0.2209 H   0  0  0  0  0  0  0  0  0  0  0  0
    4.8649   -0.2278   -1.2253 H   0  0  0  0  0  0  0  0  0  0  0  0
    3.4642    0.9171    1.2461 H   0  0  0  0  0  0  0  0  0  0  0  0
    3.5599   -0.8049    0.8652 H   0  0  0  0  0  0  0  0  0  0  0  0
    1.3793   -0.4423   -1.9699 H   0  0  0  0  0  0  0  0  0  0  0  0
    2.8469   -1.3073   -1.4825 H   0  0  0  0  0  0  0  0  0  0  0  0
    1.4681   -1.8271    0.7660 H   0  0  0  0  0  0  0  0  0  0  0  0
    1.1503   -2.7429   -0.7129 H   0  0  0  0  0  0  0  0  0  0  0  0
   -0.1877    0.6668   -0.2057 H   0  0  0  0  0  0  0  0  0  0  0  0
   -0.0636   -0.1433    1.3918 H   0  0  0  0  0  0  0  0  0  0  0  0
   -2.4887   -0.9411    0.9987 H   0  0  0  0  0  0  0  0  0  0  0  0
   -2.2588    0.8070    1.3165 H   0  0  0  0  0  0  0  0  0  0  0  0
   -4.4597   -0.6434   -0.1256 H   0  0  0  0  0  0  0  0  0  0  0  0
   -4.4572    0.2669   -1.6363 H   0  0  0  0  0  0  0  0  0  0  0  0
   -4.2717    2.4225   -0.3435 H   0  0  0  0  0  0  0  0  0  0  0  0
   -4.4301    1.5150    1.1578 H   0  0  0  0  0  0  0  0  0  0  0  0
   -5.7712    1.5257    0.0010 H   0  0  0  0  0  0  0  0  0  0  0  0
  1  2  1  0
  2  3  1  0
  3  4  1  0
  4  5  1  0
  5  6  1  0
  6  7  1  0
  7  8  1  0
  8  9  1  0
  9 10  1  0
 10 11  1  0
  1 12  1  0
  1 13  1  0
  1 14  1  0
  2 15  1  0
  2 16  1  0
  4 17  1  0
  4 18  1  0
  5 19  1  0
  5 20  1  0
  7 21  1  0
  7 22  1  0
  8 23  1  0
  8 24  1  0
 10 25  1  0
 10 26  1  0
 11 27  1  0
 11 28  1  0
 11 29  1  0
M  END
>  <anchor_atom_maps>  (12) 
1,2

>  <distance_A>  (12) 
9.510148641343948

>  <Rg_A>  (12) 
3.1813013983437743

>  <energy_kcal_mol>  (12) 
51.82276928725662

>  <ensemble>  (12) 
ETKDGv3 unweighted sampling; not a thermodynamic population

$$$$
Flexible PEG synthetic attachment-point proxy 12
     RDKit          3D

 29 28  0  0  0  0  0  0  0  0999 V2000
    3.2233    0.9199    1.6327 C   0  0  0  0  0  0  0  0  0  1  0  0
    3.1869    1.6691    0.3127 C   0  0  0  0  0  0  0  0  0  0  0  0
    2.0252    1.3263   -0.4379 O   0  0  0  0  0  0  0  0  0  0  0  0
    2.1924    0.1385   -1.2206 C   0  0  0  0  0  0  0  0  0  0  0  0
    0.8482   -0.2511   -1.8339 C   0  0  0  0  0  0  0  0  0  0  0  0
    0.0561   -0.9223   -0.8484 O   0  0  0  0  0  0  0  0  0  0  0  0
   -1.2793   -1.1477   -1.3006 C   0  0  0  0  0  0  0  0  0  0  0  0
   -2.0707   -1.9173   -0.2376 C   0  0  0  0  0  0  0  0  0  0  0  0
   -2.1923   -1.2477    1.0206 O   0  0  0  0  0  0  0  0  0  0  0  0
   -2.9329   -0.0340    0.9647 C   0  0  0  0  0  0  0  0  0  0  0  0
   -3.1797    0.4378    2.3847 C   0  0  0  0  0  0  0  0  0  2  0  0
    3.3246   -0.1582    1.4775 H   0  0  0  0  0  0  0  0  0  0  0  0
    4.0635    1.2591    2.2456 H   0  0  0  0  0  0  0  0  0  0  0  0
    2.2936    1.0765    2.1895 H   0  0  0  0  0  0  0  0  0  0  0  0
    4.0968    1.4942   -0.2726 H   0  0  0  0  0  0  0  0  0  0  0  0
    3.1297    2.7432    0.5176 H   0  0  0  0  0  0  0  0  0  0  0  0
    2.9096    0.3573   -2.0190 H   0  0  0  0  0  0  0  0  0  0  0  0
    2.5733   -0.6774   -0.5981 H   0  0  0  0  0  0  0  0  0  0  0  0
    0.3200    0.6412   -2.1886 H   0  0  0  0  0  0  0  0  0  0  0  0
    1.0097   -0.9411   -2.6689 H   0  0  0  0  0  0  0  0  0  0  0  0
   -1.2513   -1.7390   -2.2230 H   0  0  0  0  0  0  0  0  0  0  0  0
   -1.7528   -0.1850   -1.5177 H   0  0  0  0  0  0  0  0  0  0  0  0
   -3.0718   -2.1617   -0.6104 H   0  0  0  0  0  0  0  0  0  0  0  0
   -1.5568   -2.8617   -0.0281 H   0  0  0  0  0  0  0  0  0  0  0  0
   -3.8895   -0.1984    0.4570 H   0  0  0  0  0  0  0  0  0  0  0  0
   -2.3623    0.7287    0.4263 H   0  0  0  0  0  0  0  0  0  0  0  0
   -3.7362   -0.3168    2.9504 H   0  0  0  0  0  0  0  0  0  0  0  0
   -2.2314    0.5943    2.9095 H   0  0  0  0  0  0  0  0  0  0  0  0
   -3.7460    1.3733    2.3922 H   0  0  0  0  0  0  0  0  0  0  0  0
  1  2  1  0
  2  3  1  0
  3  4  1  0
  4  5  1  0
  5  6  1  0
  6  7  1  0
  7  8  1  0
  8  9  1  0
  9 10  1  0
 10 11  1  0
  1 12  1  0
  1 13  1  0
  1 14  1  0
  2 15  1  0
  2 16  1  0
  4 17  1  0
  4 18  1  0
  5 19  1  0
  5 20  1  0
  7 21  1  0
  7 22  1  0
  8 23  1  0
  8 24  1  0
 10 25  1  0
 10 26  1  0
 11 27  1  0
 11 28  1  0
 11 29  1  0
M  END
>  <anchor_atom_maps>  (13) 
1,2

>  <distance_A>  (13) 
6.465055745838613

>  <Rg_A>  (13) 
2.9242485288071367

>  <energy_kcal_mol>  (13) 
51.1375806679604

>  <ensemble>  (13) 
ETKDGv3 unweighted sampling; not a thermodynamic population

$$$$
Flexible PEG synthetic attachment-point proxy 13
     RDKit          3D

 29 28  0  0  0  0  0  0  0  0999 V2000
   -3.8396    1.6188    0.5830 C   0  0  0  0  0  0  0  0  0  1  0  0
   -3.7591    0.1032    0.6279 C   0  0  0  0  0  0  0  0  0  0  0  0
   -3.4292   -0.4233   -0.6554 O   0  0  0  0  0  0  0  0  0  0  0  0
   -2.0288   -0.4620   -0.9306 C   0  0  0  0  0  0  0  0  0  0  0  0
   -1.3813   -1.7295   -0.3672 C   0  0  0  0  0  0  0  0  0  0  0  0
    0.0034   -1.8277   -0.7034 O   0  0  0  0  0  0  0  0  0  0  0  0
    0.8427   -1.0365    0.1373 C   0  0  0  0  0  0  0  0  0  0  0  0
    2.3044   -1.2982   -0.2226 C   0  0  0  0  0  0  0  0  0  0  0  0
    3.1944   -0.5403    0.5972 O   0  0  0  0  0  0  0  0  0  0  0  0
    3.4249    0.7751    0.0978 C   0  0  0  0  0  0  0  0  0  0  0  0
    4.3761    1.4835    1.0423 C   0  0  0  0  0  0  0  0  0  2  0  0
   -4.5360    1.9438   -0.1970 H   0  0  0  0  0  0  0  0  0  0  0  0
   -4.1766    2.0162    1.5448 H   0  0  0  0  0  0  0  0  0  0  0  0
   -2.8677    2.0627    0.3477 H   0  0  0  0  0  0  0  0  0  0  0  0
   -4.7433   -0.2959    0.8942 H   0  0  0  0  0  0  0  0  0  0  0  0
   -3.0506   -0.2323    1.3923 H   0  0  0  0  0  0  0  0  0  0  0  0
   -1.9086   -0.4612   -2.0199 H   0  0  0  0  0  0  0  0  0  0  0  0
   -1.5320    0.4447   -0.5715 H   0  0  0  0  0  0  0  0  0  0  0  0
   -1.8838   -2.6017   -0.8011 H   0  0  0  0  0  0  0  0  0  0  0  0
   -1.5199   -1.8134    0.7166 H   0  0  0  0  0  0  0  0  0  0  0  0
    0.6060    0.0240    0.0106 H   0  0  0  0  0  0  0  0  0  0  0  0
    0.6750   -1.2921    1.1904 H   0  0  0  0  0  0  0  0  0  0  0  0
    2.4927   -1.1155   -1.2877 H   0  0  0  0  0  0  0  0  0  0  0  0
    2.5255   -2.3582   -0.0530 H   0  0  0  0  0  0  0  0  0  0  0  0
    3.8705    0.7175   -0.9013 H   0  0  0  0  0  0  0  0  0  0  0  0
    2.4832    1.3296    0.0393 H   0  0  0  0  0  0  0  0  0  0  0  0
    4.5858    2.4992    0.6956 H   0  0  0  0  0  0  0  0  0  0  0  0
    3.9513    1.5346    2.0503 H   0  0  0  0  0  0  0  0  0  0  0  0
    5.3205    0.9350    1.1218 H   0  0  0  0  0  0  0  0  0  0  0  0
  1  2  1  0
  2  3  1  0
  3  4  1  0
  4  5  1  0
  5  6  1  0
  6  7  1  0
  7  8  1  0
  8  9  1  0
  9 10  1  0
 10 11  1  0
  1 12  1  0
  1 13  1  0
  1 14  1  0
  2 15  1  0
  2 16  1  0
  4 17  1  0
  4 18  1  0
  5 19  1  0
  5 20  1  0
  7 21  1  0
  7 22  1  0
  8 23  1  0
  8 24  1  0
 10 25  1  0
 10 26  1  0
 11 27  1  0
 11 28  1  0
 11 29  1  0
M  END
>  <anchor_atom_maps>  (14) 
1,2

>  <distance_A>  (14) 
8.229600104400348

>  <Rg_A>  (14) 
3.2444640116019783

>  <energy_kcal_mol>  (14) 
49.84427961868576

>  <ensemble>  (14) 
ETKDGv3 unweighted sampling; not a thermodynamic population

$$$$
Flexible PEG synthetic attachment-point proxy 14
     RDKit          3D

 29 28  0  0  0  0  0  0  0  0999 V2000
   -5.1867    1.1507    0.1306 C   0  0  0  0  0  0  0  0  0  1  0  0
   -4.1355    0.0700    0.2919 C   0  0  0  0  0  0  0  0  0  0  0  0
   -3.1461    0.2538   -0.7183 O   0  0  0  0  0  0  0  0  0  0  0  0
   -2.1150   -0.7331   -0.6762 C   0  0  0  0  0  0  0  0  0  0  0  0
   -1.0338   -0.3860    0.3500 C   0  0  0  0  0  0  0  0  0  0  0  0
    0.0024   -1.3682    0.3707 O   0  0  0  0  0  0  0  0  0  0  0  0
    1.0275   -1.1436   -0.5985 C   0  0  0  0  0  0  0  0  0  0  0  0
    2.1076   -0.2041   -0.0631 C   0  0  0  0  0  0  0  0  0  0  0  0
    3.1099   -0.0273   -1.0634 O   0  0  0  0  0  0  0  0  0  0  0  0
    4.1545    0.8577   -0.6641 C   0  0  0  0  0  0  0  0  0  0  0  0
    5.1676    0.1577    0.2241 C   0  0  0  0  0  0  0  0  0  2  0  0
   -5.9714    1.0475    0.8852 H   0  0  0  0  0  0  0  0  0  0  0  0
   -5.6432    1.0995   -0.8635 H   0  0  0  0  0  0  0  0  0  0  0  0
   -4.7354    2.1441    0.2233 H   0  0  0  0  0  0  0  0  0  0  0  0
   -4.5992   -0.9162    0.1807 H   0  0  0  0  0  0  0  0  0  0  0  0
   -3.6824    0.1443    1.2852 H   0  0  0  0  0  0  0  0  0  0  0  0
   -1.6709   -0.7719   -1.6762 H   0  0  0  0  0  0  0  0  0  0  0  0
   -2.5301   -1.7315   -0.4920 H   0  0  0  0  0  0  0  0  0  0  0  0
   -0.6354    0.6201    0.1762 H   0  0  0  0  0  0  0  0  0  0  0  0
   -1.4731   -0.3691    1.3524 H   0  0  0  0  0  0  0  0  0  0  0  0
    1.4835   -2.1146   -0.8232 H   0  0  0  0  0  0  0  0  0  0  0  0
    0.6165   -0.7746   -1.5452 H   0  0  0  0  0  0  0  0  0  0  0  0
    2.5403   -0.6314    0.8477 H   0  0  0  0  0  0  0  0  0  0  0  0
    1.6720    0.7664    0.1987 H   0  0  0  0  0  0  0  0  0  0  0  0
    3.7437    1.7489   -0.1764 H   0  0  0  0  0  0  0  0  0  0  0  0
    4.6568    1.1885   -1.5791 H   0  0  0  0  0  0  0  0  0  0  0  0
    4.7262   -0.1292    1.1831 H   0  0  0  0  0  0  0  0  0  0  0  0
    6.0213    0.8118    0.4239 H   0  0  0  0  0  0  0  0  0  0  0  0
    5.5282   -0.7602   -0.2514 H   0  0  0  0  0  0  0  0  0  0  0  0
  1  2  1  0
  2  3  1  0
  3  4  1  0
  4  5  1  0
  5  6  1  0
  6  7  1  0
  7  8  1  0
  8  9  1  0
  9 10  1  0
 10 11  1  0
  1 12  1  0
  1 13  1  0
  1 14  1  0
  2 15  1  0
  2 16  1  0
  4 17  1  0
  4 18  1  0
  5 19  1  0
  5 20  1  0
  7 21  1  0
  7 22  1  0
  8 23  1  0
  8 24  1  0
 10 25  1  0
 10 26  1  0
 11 27  1  0
 11 28  1  0
 11 29  1  0
M  END
>  <anchor_atom_maps>  (15) 
1,2

>  <distance_A>  (15) 
10.402173192007629

>  <Rg_A>  (15) 
3.453776719139534

>  <energy_kcal_mol>  (15) 
49.20736240966627

>  <ensemble>  (15) 
ETKDGv3 unweighted sampling; not a thermodynamic population

$$$$
Flexible PEG synthetic attachment-point proxy 15
     RDKit          3D

 29 28  0  0  0  0  0  0  0  0999 V2000
   -4.9294    1.0525   -0.4047 C   0  0  0  0  0  0  0  0  0  1  0  0
   -4.5832    0.2362    0.8277 C   0  0  0  0  0  0  0  0  0  0  0  0
   -3.2904    0.5693    1.3290 O   0  0  0  0  0  0  0  0  0  0  0  0
   -2.2310   -0.0678    0.6148 C   0  0  0  0  0  0  0  0  0  0  0  0
   -0.8971    0.3196    1.2441 C   0  0  0  0  0  0  0  0  0  0  0  0
    0.1620   -0.3371    0.5491 O   0  0  0  0  0  0  0  0  0  0  0  0
    1.4410    0.0082    1.0941 C   0  0  0  0  0  0  0  0  0  0  0  0
    2.5421   -0.6563    0.2677 C   0  0  0  0  0  0  0  0  0  0  0  0
    2.7093    0.0606   -0.9604 O   0  0  0  0  0  0  0  0  0  0  0  0
    3.5700   -0.5952   -1.8881 C   0  0  0  0  0  0  0  0  0  0  0  0
    5.0314   -0.4523   -1.5019 C   0  0  0  0  0  0  0  0  0  2  0  0
   -4.7970    2.1215   -0.2089 H   0  0  0  0  0  0  0  0  0  0  0  0
   -5.9655    0.8737   -0.7064 H   0  0  0  0  0  0  0  0  0  0  0  0
   -4.2801    0.7974   -1.2474 H   0  0  0  0  0  0  0  0  0  0  0  0
   -5.3010    0.4726    1.6202 H   0  0  0  0  0  0  0  0  0  0  0  0
   -4.6584   -0.8389    0.6293 H   0  0  0  0  0  0  0  0  0  0  0  0
   -2.2384    0.2332   -0.4383 H   0  0  0  0  0  0  0  0  0  0  0  0
   -2.3544   -1.1567    0.6526 H   0  0  0  0  0  0  0  0  0  0  0  0
   -0.8864    0.0317    2.3021 H   0  0  0  0  0  0  0  0  0  0  0  0
   -0.7660    1.4072    1.1918 H   0  0  0  0  0  0  0  0  0  0  0  0
    1.4879   -0.3556    2.1263 H   0  0  0  0  0  0  0  0  0  0  0  0
    1.5610    1.0973    1.0795 H   0  0  0  0  0  0  0  0  0  0  0  0
    2.2757   -1.6974    0.0540 H   0  0  0  0  0  0  0  0  0  0  0  0
    3.4814   -0.6206    0.8279 H   0  0  0  0  0  0  0  0  0  0  0  0
    3.4130   -0.1145   -2.8594 H   0  0  0  0  0  0  0  0  0  0  0  0
    3.2878   -1.6483   -1.9976 H   0  0  0  0  0  0  0  0  0  0  0  0
    5.2529   -0.9942   -0.5776 H   0  0  0  0  0  0  0  0  0  0  0  0
    5.6782   -0.8474   -2.2906 H   0  0  0  0  0  0  0  0  0  0  0  0
    5.2843    0.5987   -1.3288 H   0  0  0  0  0  0  0  0  0  0  0  0
  1  2  1  0
  2  3  1  0
  3  4  1  0
  4  5  1  0
  5  6  1  0
  6  7  1  0
  7  8  1  0
  8  9  1  0
  9 10  1  0
 10 11  1  0
  1 12  1  0
  1 13  1  0
  1 14  1  0
  2 15  1  0
  2 16  1  0
  4 17  1  0
  4 18  1  0
  5 19  1  0
  5 20  1  0
  7 21  1  0
  7 22  1  0
  8 23  1  0
  8 24  1  0
 10 25  1  0
 10 26  1  0
 11 27  1  0
 11 28  1  0
 11 29  1  0
M  END
>  <anchor_atom_maps>  (16) 
1,2

>  <distance_A>  (16) 
10.133317494216351

>  <Rg_A>  (16) 
3.5061109465442386

>  <energy_kcal_mol>  (16) 
47.93794988031733

>  <ensemble>  (16) 
ETKDGv3 unweighted sampling; not a thermodynamic population

$$$$
Flexible PEG synthetic attachment-point proxy 16
     RDKit          3D

 29 28  0  0  0  0  0  0  0  0999 V2000
   -5.0183   -0.4377    0.4523 C   0  0  0  0  0  0  0  0  0  1  0  0
   -4.0763    0.6668    0.0069 C   0  0  0  0  0  0  0  0  0  0  0  0
   -3.1336    0.1729   -0.9430 O   0  0  0  0  0  0  0  0  0  0  0  0
   -1.9810   -0.4318   -0.3563 C   0  0  0  0  0  0  0  0  0  0  0  0
   -0.9025    0.6084   -0.0460 C   0  0  0  0  0  0  0  0  0  0  0  0
    0.2463    0.0262    0.5683 O   0  0  0  0  0  0  0  0  0  0  0  0
    1.1429   -0.5774   -0.3672 C   0  0  0  0  0  0  0  0  0  0  0  0
    2.3824   -1.1022    0.3659 C   0  0  0  0  0  0  0  0  0  0  0  0
    3.1514   -0.1034    1.0409 O   0  0  0  0  0  0  0  0  0  0  0  0
    3.7246    0.9165    0.2308 C   0  0  0  0  0  0  0  0  0  0  0  0
    4.7804    0.3871   -0.7232 C   0  0  0  0  0  0  0  0  0  2  0  0
   -5.5005   -0.9037   -0.4133 H   0  0  0  0  0  0  0  0  0  0  0  0
   -5.7919   -0.0411    1.1160 H   0  0  0  0  0  0  0  0  0  0  0  0
   -4.4811   -1.2298    0.9824 H   0  0  0  0  0  0  0  0  0  0  0  0
   -3.5763    1.1300    0.8638 H   0  0  0  0  0  0  0  0  0  0  0  0
   -4.6577    1.4469   -0.4954 H   0  0  0  0  0  0  0  0  0  0  0  0
   -1.5958   -1.1507   -1.0864 H   0  0  0  0  0  0  0  0  0  0  0  0
   -2.2356   -1.0128    0.5374 H   0  0  0  0  0  0  0  0  0  0  0  0
   -1.2994    1.3465    0.6586 H   0  0  0  0  0  0  0  0  0  0  0  0
   -0.6258    1.1716   -0.9456 H   0  0  0  0  0  0  0  0  0  0  0  0
    1.4221    0.1552   -1.1304 H   0  0  0  0  0  0  0  0  0  0  0  0
    0.6437   -1.4189   -0.8583 H   0  0  0  0  0  0  0  0  0  0  0  0
    3.0262   -1.6619   -0.3199 H   0  0  0  0  0  0  0  0  0  0  0  0
    2.0580   -1.8028    1.1435 H   0  0  0  0  0  0  0  0  0  0  0  0
    2.9488    1.4744   -0.3018 H   0  0  0  0  0  0  0  0  0  0  0  0
    4.2005    1.6253    0.9172 H   0  0  0  0  0  0  0  0  0  0  0  0
    5.5061   -0.2367   -0.1916 H   0  0  0  0  0  0  0  0  0  0  0  0
    4.3324   -0.2302   -1.5077 H   0  0  0  0  0  0  0  0  0  0  0  0
    5.3097    1.2133   -1.2070 H   0  0  0  0  0  0  0  0  0  0  0  0
  1  2  1  0
  2  3  1  0
  3  4  1  0
  4  5  1  0
  5  6  1  0
  6  7  1  0
  7  8  1  0
  8  9  1  0
  9 10  1  0
 10 11  1  0
  1 12  1  0
  1 13  1  0
  1 14  1  0
  2 15  1  0
  2 16  1  0
  4 17  1  0
  4 18  1  0
  5 19  1  0
  5 20  1  0
  7 21  1  0
  7 22  1  0
  8 23  1  0
  8 24  1  0
 10 25  1  0
 10 26  1  0
 11 27  1  0
 11 28  1  0
 11 29  1  0
M  END
>  <anchor_atom_maps>  (17) 
1,2

>  <distance_A>  (17) 
9.903365007641455

>  <Rg_A>  (17) 
3.3187143614487065

>  <energy_kcal_mol>  (17) 
53.53805951938896

>  <ensemble>  (17) 
ETKDGv3 unweighted sampling; not a thermodynamic population

$$$$
Flexible PEG synthetic attachment-point proxy 17
     RDKit          3D

 29 28  0  0  0  0  0  0  0  0999 V2000
   -5.2929   -0.5823    0.2968 C   0  0  0  0  0  0  0  0  0  1  0  0
   -4.5997    0.2087   -0.7983 C   0  0  0  0  0  0  0  0  0  0  0  0
   -3.3108   -0.3256   -1.0936 O   0  0  0  0  0  0  0  0  0  0  0  0
   -2.3078    0.0802   -0.1630 C   0  0  0  0  0  0  0  0  0  0  0  0
   -0.9634   -0.4992   -0.5908 C   0  0  0  0  0  0  0  0  0  0  0  0
    0.0464   -0.0853    0.3300 O   0  0  0  0  0  0  0  0  0  0  0  0
    1.3251   -0.6108   -0.0275 C   0  0  0  0  0  0  0  0  0  0  0  0
    2.3616   -0.1625    1.0013 C   0  0  0  0  0  0  0  0  0  0  0  0
    3.6589   -0.6702    0.6894 O   0  0  0  0  0  0  0  0  0  0  0  0
    4.4031    0.1515   -0.2075 C   0  0  0  0  0  0  0  0  0  0  0  0
    5.1346    1.2465    0.5485 C   0  0  0  0  0  0  0  0  0  2  0  0
   -4.7737   -0.4773    1.2539 H   0  0  0  0  0  0  0  0  0  0  0  0
   -6.3226   -0.2371    0.4280 H   0  0  0  0  0  0  0  0  0  0  0  0
   -5.3053   -1.6495    0.0528 H   0  0  0  0  0  0  0  0  0  0  0  0
   -5.1918    0.1334   -1.7163 H   0  0  0  0  0  0  0  0  0  0  0  0
   -4.5301    1.2715   -0.5408 H   0  0  0  0  0  0  0  0  0  0  0  0
   -2.5517   -0.2705    0.8455 H   0  0  0  0  0  0  0  0  0  0  0  0
   -2.2443    1.1744   -0.1309 H   0  0  0  0  0  0  0  0  0  0  0  0
   -0.7144   -0.1534   -1.6013 H   0  0  0  0  0  0  0  0  0  0  0  0
   -1.0231   -1.5939   -0.6169 H   0  0  0  0  0  0  0  0  0  0  0  0
    1.6012   -0.2588   -1.0276 H   0  0  0  0  0  0  0  0  0  0  0  0
    1.2876   -1.7064   -0.0587 H   0  0  0  0  0  0  0  0  0  0  0  0
    2.0806   -0.5613    1.9827 H   0  0  0  0  0  0  0  0  0  0  0  0
    2.3668    0.9283    1.1071 H   0  0  0  0  0  0  0  0  0  0  0  0
    5.1399   -0.4941   -0.6965 H   0  0  0  0  0  0  0  0  0  0  0  0
    3.7626    0.5708   -0.9905 H   0  0  0  0  0  0  0  0  0  0  0  0
    5.7593    0.8165    1.3383 H   0  0  0  0  0  0  0  0  0  0  0  0
    4.4337    1.9318    1.0343 H   0  0  0  0  0  0  0  0  0  0  0  0
    5.7701    1.8247   -0.1284 H   0  0  0  0  0  0  0  0  0  0  0  0
  1  2  1  0
  2  3  1  0
  3  4  1  0
  4  5  1  0
  5  6  1  0
  6  7  1  0
  7  8  1  0
  8  9  1  0
  9 10  1  0
 10 11  1  0
  1 12  1  0
  1 13  1  0
  1 14  1  0
  2 15  1  0
  2 16  1  0
  4 17  1  0
  4 18  1  0
  5 19  1  0
  5 20  1  0
  7 21  1  0
  7 22  1  0
  8 23  1  0
  8 24  1  0
 10 25  1  0
 10 26  1  0
 11 27  1  0
 11 28  1  0
 11 29  1  0
M  END
>  <anchor_atom_maps>  (18) 
1,2

>  <distance_A>  (18) 
10.589578355861935

>  <Rg_A>  (18) 
3.6185883081058625

>  <energy_kcal_mol>  (18) 
47.67573333924908

>  <ensemble>  (18) 
ETKDGv3 unweighted sampling; not a thermodynamic population

$$$$
Flexible PEG synthetic attachment-point proxy 18
     RDKit          3D

 29 28  0  0  0  0  0  0  0  0999 V2000
   -5.2578    0.8345    0.4874 C   0  0  0  0  0  0  0  0  0  1  0  0
   -4.1845    0.5026   -0.5301 C   0  0  0  0  0  0  0  0  0  0  0  0
   -3.0455   -0.0008    0.1645 O   0  0  0  0  0  0  0  0  0  0  0  0
   -1.9900   -0.3360   -0.7370 C   0  0  0  0  0  0  0  0  0  0  0  0
   -0.7986   -0.8636    0.0552 C   0  0  0  0  0  0  0  0  0  0  0  0
    0.2507   -1.2038   -0.8477 O   0  0  0  0  0  0  0  0  0  0  0  0
    1.4035   -1.7541   -0.2008 C   0  0  0  0  0  0  0  0  0  0  0  0
    2.2863   -0.6916    0.4627 C   0  0  0  0  0  0  0  0  0  0  0  0
    2.8831    0.1303   -0.5443 O   0  0  0  0  0  0  0  0  0  0  0  0
    3.6058    1.2413   -0.0206 C   0  0  0  0  0  0  0  0  0  0  0  0
    4.9547    0.8242    0.5376 C   0  0  0  0  0  0  0  0  0  2  0  0
   -5.5307   -0.0554    1.0642 H   0  0  0  0  0  0  0  0  0  0  0  0
   -6.1534    1.2256   -0.0034 H   0  0  0  0  0  0  0  0  0  0  0  0
   -4.8934    1.5787    1.2034 H   0  0  0  0  0  0  0  0  0  0  0  0
   -3.9092    1.4043   -1.0882 H   0  0  0  0  0  0  0  0  0  0  0  0
   -4.5560   -0.2543   -1.2295 H   0  0  0  0  0  0  0  0  0  0  0  0
   -2.3308   -1.0983   -1.4479 H   0  0  0  0  0  0  0  0  0  0  0  0
   -1.6911    0.5487   -1.3120 H   0  0  0  0  0  0  0  0  0  0  0  0
   -1.1005   -1.7460    0.6318 H   0  0  0  0  0  0  0  0  0  0  0  0
   -0.4678   -0.0984    0.7651 H   0  0  0  0  0  0  0  0  0  0  0  0
    1.9800   -2.2607   -0.9823 H   0  0  0  0  0  0  0  0  0  0  0  0
    1.0918   -2.5103    0.5284 H   0  0  0  0  0  0  0  0  0  0  0  0
    3.0765   -1.1947    1.0288 H   0  0  0  0  0  0  0  0  0  0  0  0
    1.7014   -0.0658    1.1431 H   0  0  0  0  0  0  0  0  0  0  0  0
    3.0092    1.7698    0.7314 H   0  0  0  0  0  0  0  0  0  0  0  0
    3.7674    1.9343   -0.8528 H   0  0  0  0  0  0  0  0  0  0  0  0
    4.8404    0.1976    1.4271 H   0  0  0  0  0  0  0  0  0  0  0  0
    5.5138    0.2393   -0.1998 H   0  0  0  0  0  0  0  0  0  0  0  0
    5.5448    1.7027    0.8145 H   0  0  0  0  0  0  0  0  0  0  0  0
  1  2  1  0
  2  3  1  0
  3  4  1  0
  4  5  1  0
  5  6  1  0
  6  7  1  0
  7  8  1  0
  8  9  1  0
  9 10  1  0
 10 11  1  0
  1 12  1  0
  1 13  1  0
  1 14  1  0
  2 15  1  0
  2 16  1  0
  4 17  1  0
  4 18  1  0
  5 19  1  0
  5 20  1  0
  7 21  1  0
  7 22  1  0
  8 23  1  0
  8 24  1  0
 10 25  1  0
 10 26  1  0
 11 27  1  0
 11 28  1  0
 11 29  1  0
M  END
>  <anchor_atom_maps>  (19) 
1,2

>  <distance_A>  (19) 
10.212564376933152

>  <Rg_A>  (19) 
3.4051060317887147

>  <energy_kcal_mol>  (19) 
48.29215027775109

>  <ensemble>  (19) 
ETKDGv3 unweighted sampling; not a thermodynamic population

$$$$
Flexible PEG synthetic attachment-point proxy 19
     RDKit          3D

 29 28  0  0  0  0  0  0  0  0999 V2000
    4.6761   -0.6306    0.5600 C   0  0  0  0  0  0  0  0  0  1  0  0
    3.1648   -0.7634    0.4986 C   0  0  0  0  0  0  0  0  0  0  0  0
    2.6728   -0.3213   -0.7633 O   0  0  0  0  0  0  0  0  0  0  0  0
    2.4287    1.0878   -0.8433 C   0  0  0  0  0  0  0  0  0  0  0  0
    1.0462    1.4566   -0.2965 C   0  0  0  0  0  0  0  0  0  0  0  0
    0.0368    0.9997   -1.2028 O   0  0  0  0  0  0  0  0  0  0  0  0
   -1.2860    1.1794   -0.7002 C   0  0  0  0  0  0  0  0  0  0  0  0
   -1.7213    0.0019    0.1751 C   0  0  0  0  0  0  0  0  0  0  0  0
   -3.0492    0.1851    0.6677 O   0  0  0  0  0  0  0  0  0  0  0  0
   -4.0646   -0.2815   -0.2189 C   0  0  0  0  0  0  0  0  0  0  0  0
   -4.3117   -1.7663   -0.0183 C   0  0  0  0  0  0  0  0  0  2  0  0
    5.1426   -1.1578   -0.2787 H   0  0  0  0  0  0  0  0  0  0  0  0
    4.9868    0.4162    0.4908 H   0  0  0  0  0  0  0  0  0  0  0  0
    5.0625   -1.0447    1.4957 H   0  0  0  0  0  0  0  0  0  0  0  0
    2.8978   -1.8209    0.5944 H   0  0  0  0  0  0  0  0  0  0  0  0
    2.6881   -0.2278    1.3260 H   0  0  0  0  0  0  0  0  0  0  0  0
    3.2123    1.6416   -0.3162 H   0  0  0  0  0  0  0  0  0  0  0  0
    2.4822    1.3526   -1.9046 H   0  0  0  0  0  0  0  0  0  0  0  0
    0.8901    1.0103    0.6894 H   0  0  0  0  0  0  0  0  0  0  0  0
    0.9677    2.5462   -0.2156 H   0  0  0  0  0  0  0  0  0  0  0  0
   -1.3807    2.1306   -0.1621 H   0  0  0  0  0  0  0  0  0  0  0  0
   -1.9503    1.2551   -1.5672 H   0  0  0  0  0  0  0  0  0  0  0  0
   -1.6127   -0.9474   -0.3616 H   0  0  0  0  0  0  0  0  0  0  0  0
   -1.0653   -0.0679    1.0486 H   0  0  0  0  0  0  0  0  0  0  0  0
   -4.9802    0.2662    0.0269 H   0  0  0  0  0  0  0  0  0  0  0  0
   -3.8184   -0.0584   -1.2623 H   0  0  0  0  0  0  0  0  0  0  0  0
   -4.5417   -1.9791    1.0309 H   0  0  0  0  0  0  0  0  0  0  0  0
   -5.1464   -2.1060   -0.6383 H   0  0  0  0  0  0  0  0  0  0  0  0
   -3.4271   -2.3560   -0.2765 H   0  0  0  0  0  0  0  0  0  0  0  0
  1  2  1  0
  2  3  1  0
  3  4  1  0
  4  5  1  0
  5  6  1  0
  6  7  1  0
  7  8  1  0
  8  9  1  0
  9 10  1  0
 10 11  1  0
  1 12  1  0
  1 13  1  0
  1 14  1  0
  2 15  1  0
  2 16  1  0
  4 17  1  0
  4 18  1  0
  5 19  1  0
  5 20  1  0
  7 21  1  0
  7 22  1  0
  8 23  1  0
  8 24  1  0
 10 25  1  0
 10 26  1  0
 11 27  1  0
 11 28  1  0
 11 29  1  0
M  END
>  <anchor_atom_maps>  (20) 
1,2

>  <distance_A>  (20) 
9.07772938270981

>  <Rg_A>  (20) 
3.2010994928367347

>  <energy_kcal_mol>  (20) 
52.8900757968732

>  <ensemble>  (20) 
ETKDGv3 unweighted sampling; not a thermodynamic population

$$$$
Flexible PEG synthetic attachment-point proxy 20
     RDKit          3D

 29 28  0  0  0  0  0  0  0  0999 V2000
    4.6553   -0.3419    1.0430 C   0  0  0  0  0  0  0  0  0  1  0  0
    4.2002    0.2534   -0.2777 C   0  0  0  0  0  0  0  0  0  0  0  0
    3.2056   -0.5688   -0.8851 O   0  0  0  0  0  0  0  0  0  0  0  0
    1.8783   -0.3045   -0.4276 C   0  0  0  0  0  0  0  0  0  0  0  0
    1.2224    0.8088   -1.2480 C   0  0  0  0  0  0  0  0  0  0  0  0
   -0.0858    1.1197   -0.7712 O   0  0  0  0  0  0  0  0  0  0  0  0
   -1.0939    0.2530   -1.3048 C   0  0  0  0  0  0  0  0  0  0  0  0
   -2.4287    0.5521   -0.6224 C   0  0  0  0  0  0  0  0  0  0  0  0
   -2.4222   -0.0222    0.6897 O   0  0  0  0  0  0  0  0  0  0  0  0
   -3.5386    0.3686    1.4852 C   0  0  0  0  0  0  0  0  0  0  0  0
   -4.8066   -0.3594    1.0760 C   0  0  0  0  0  0  0  0  0  2  0  0
    4.9944   -1.3735    0.9028 H   0  0  0  0  0  0  0  0  0  0  0  0
    5.4749    0.2441    1.4687 H   0  0  0  0  0  0  0  0  0  0  0  0
    3.8378   -0.3713    1.7695 H   0  0  0  0  0  0  0  0  0  0  0  0
    3.8449    1.2810   -0.1476 H   0  0  0  0  0  0  0  0  0  0  0  0
    5.0525    0.2849   -0.9644 H   0  0  0  0  0  0  0  0  0  0  0  0
    1.3104   -1.2325   -0.5478 H   0  0  0  0  0  0  0  0  0  0  0  0
    1.8548   -0.0701    0.6427 H   0  0  0  0  0  0  0  0  0  0  0  0
    1.2051    0.5569   -2.3155 H   0  0  0  0  0  0  0  0  0  0  0  0
    1.8183    1.7235   -1.1640 H   0  0  0  0  0  0  0  0  0  0  0  0
   -1.1796    0.4479   -2.3792 H   0  0  0  0  0  0  0  0  0  0  0  0
   -0.8173   -0.7935   -1.1422 H   0  0  0  0  0  0  0  0  0  0  0  0
   -2.5819    1.6346   -0.5512 H   0  0  0  0  0  0  0  0  0  0  0  0
   -3.2382    0.0990   -1.2027 H   0  0  0  0  0  0  0  0  0  0  0  0
   -3.6743    1.4554    1.4514 H   0  0  0  0  0  0  0  0  0  0  0  0
   -3.2978    0.1036    2.5200 H   0  0  0  0  0  0  0  0  0  0  0  0
   -4.6391   -1.4409    1.0476 H   0  0  0  0  0  0  0  0  0  0  0  0
   -5.1336   -0.0570    0.0767 H   0  0  0  0  0  0  0  0  0  0  0  0
   -5.6174   -0.1445    1.7782 H   0  0  0  0  0  0  0  0  0  0  0  0
  1  2  1  0
  2  3  1  0
  3  4  1  0
  4  5  1  0
  5  6  1  0
  6  7  1  0
  7  8  1  0
  8  9  1  0
  9 10  1  0
 10 11  1  0
  1 12  1  0
  1 13  1  0
  1 14  1  0
  2 15  1  0
  2 16  1  0
  4 17  1  0
  4 18  1  0
  5 19  1  0
  5 20  1  0
  7 21  1  0
  7 22  1  0
  8 23  1  0
  8 24  1  0
 10 25  1  0
 10 26  1  0
 11 27  1  0
 11 28  1  0
 11 29  1  0
M  END
>  <anchor_atom_maps>  (21) 
1,2

>  <distance_A>  (21) 
9.461913070456088

>  <Rg_A>  (21) 
3.3020426203914686

>  <energy_kcal_mol>  (21) 
50.71728953825246

>  <ensemble>  (21) 
ETKDGv3 unweighted sampling; not a thermodynamic population

$$$$
Flexible PEG synthetic attachment-point proxy 21
     RDKit          3D

 29 28  0  0  0  0  0  0  0  0999 V2000
    5.4170   -0.5438   -0.8610 C   0  0  0  0  0  0  0  0  0  1  0  0
    4.4332    0.0363    0.1355 C   0  0  0  0  0  0  0  0  0  0  0  0
    3.1535    0.1153   -0.4884 O   0  0  0  0  0  0  0  0  0  0  0  0
    2.1716    0.6538    0.3965 C   0  0  0  0  0  0  0  0  0  0  0  0
    0.8288    0.7256   -0.3232 C   0  0  0  0  0  0  0  0  0  0  0  0
   -0.1557    1.2468    0.5693 O   0  0  0  0  0  0  0  0  0  0  0  0
   -1.4368    1.3984   -0.0438 C   0  0  0  0  0  0  0  0  0  0  0  0
   -2.2197    0.0863   -0.0818 C   0  0  0  0  0  0  0  0  0  0  0  0
   -3.5063    0.3266   -0.6516 O   0  0  0  0  0  0  0  0  0  0  0  0
   -4.3084   -0.8487   -0.7475 C   0  0  0  0  0  0  0  0  0  0  0  0
   -4.9639   -1.1844    0.5802 C   0  0  0  0  0  0  0  0  0  2  0  0
    6.4158   -0.6225   -0.4227 H   0  0  0  0  0  0  0  0  0  0  0  0
    5.4725    0.0827   -1.7573 H   0  0  0  0  0  0  0  0  0  0  0  0
    5.0945   -1.5382   -1.1869 H   0  0  0  0  0  0  0  0  0  0  0  0
    4.7587    1.0370    0.4405 H   0  0  0  0  0  0  0  0  0  0  0  0
    4.3749   -0.6082    1.0195 H   0  0  0  0  0  0  0  0  0  0  0  0
    2.4702    1.6562    0.7260 H   0  0  0  0  0  0  0  0  0  0  0  0
    2.0821    0.0210    1.2877 H   0  0  0  0  0  0  0  0  0  0  0  0
    0.5444   -0.2745   -0.6678 H   0  0  0  0  0  0  0  0  0  0  0  0
    0.9183    1.3707   -1.2053 H   0  0  0  0  0  0  0  0  0  0  0  0
   -1.9981    2.1266    0.5528 H   0  0  0  0  0  0  0  0  0  0  0  0
   -1.3444    1.8362   -1.0453 H   0  0  0  0  0  0  0  0  0  0  0  0
   -2.3138   -0.3093    0.9351 H   0  0  0  0  0  0  0  0  0  0  0  0
   -1.6873   -0.6585   -0.6827 H   0  0  0  0  0  0  0  0  0  0  0  0
   -5.0909   -0.6392   -1.4842 H   0  0  0  0  0  0  0  0  0  0  0  0
   -3.7196   -1.6913   -1.1269 H   0  0  0  0  0  0  0  0  0  0  0  0
   -5.5029   -0.3168    0.9745 H   0  0  0  0  0  0  0  0  0  0  0  0
   -4.2211   -1.4696    1.3309 H   0  0  0  0  0  0  0  0  0  0  0  0
   -5.6667   -2.0145    0.4635 H   0  0  0  0  0  0  0  0  0  0  0  0
  1  2  1  0
  2  3  1  0
  3  4  1  0
  4  5  1  0
  5  6  1  0
  6  7  1  0
  7  8  1  0
  8  9  1  0
  9 10  1  0
 10 11  1  0
  1 12  1  0
  1 13  1  0
  1 14  1  0
  2 15  1  0
  2 16  1  0
  4 17  1  0
  4 18  1  0
  5 19  1  0
  5 20  1  0
  7 21  1  0
  7 22  1  0
  8 23  1  0
  8 24  1  0
 10 25  1  0
 10 26  1  0
 11 27  1  0
 11 28  1  0
 11 29  1  0
M  END
>  <anchor_atom_maps>  (22) 
1,2

>  <distance_A>  (22) 
10.500021799417672

>  <Rg_A>  (22) 
3.5692288630964506

>  <energy_kcal_mol>  (22) 
46.11929833893785

>  <ensemble>  (22) 
ETKDGv3 unweighted sampling; not a thermodynamic population

$$$$
Flexible PEG synthetic attachment-point proxy 22
     RDKit          3D

 29 28  0  0  0  0  0  0  0  0999 V2000
   -4.5240   -0.9596   -0.9092 C   0  0  0  0  0  0  0  0  0  1  0  0
   -3.6030    0.2474   -0.8952 C   0  0  0  0  0  0  0  0  0  0  0  0
   -2.3183   -0.0712   -0.3658 O   0  0  0  0  0  0  0  0  0  0  0  0
   -2.3084   -0.2078    1.0604 C   0  0  0  0  0  0  0  0  0  0  0  0
   -0.8611   -0.3123    1.5401 C   0  0  0  0  0  0  0  0  0  0  0  0
   -0.2635    0.9894    1.5254 O   0  0  0  0  0  0  0  0  0  0  0  0
    1.1441    0.9515    1.7564 C   0  0  0  0  0  0  0  0  0  0  0  0
    1.9204    0.7479    0.4561 C   0  0  0  0  0  0  0  0  0  0  0  0
    3.3187    0.7283    0.7451 O   0  0  0  0  0  0  0  0  0  0  0  0
    4.1325    0.6394   -0.4228 C   0  0  0  0  0  0  0  0  0  0  0  0
    4.2004   -0.7829   -0.9498 C   0  0  0  0  0  0  0  0  0  2  0  0
   -5.4542   -0.7277   -1.4362 H   0  0  0  0  0  0  0  0  0  0  0  0
   -4.7790   -1.2766    0.1064 H   0  0  0  0  0  0  0  0  0  0  0  0
   -4.0399   -1.8094   -1.4011 H   0  0  0  0  0  0  0  0  0  0  0  0
   -3.4457    0.5834   -1.9255 H   0  0  0  0  0  0  0  0  0  0  0  0
   -4.0497    1.0834   -0.3456 H   0  0  0  0  0  0  0  0  0  0  0  0
   -2.8437   -1.1231    1.3306 H   0  0  0  0  0  0  0  0  0  0  0  0
   -2.7969    0.6591    1.5189 H   0  0  0  0  0  0  0  0  0  0  0  0
   -0.3001   -0.9947    0.8931 H   0  0  0  0  0  0  0  0  0  0  0  0
   -0.8407   -0.6841    2.5701 H   0  0  0  0  0  0  0  0  0  0  0  0
    1.4316    1.9149    2.1928 H   0  0  0  0  0  0  0  0  0  0  0  0
    1.4040    0.1897    2.5018 H   0  0  0  0  0  0  0  0  0  0  0  0
    1.6880    1.5630   -0.2395 H   0  0  0  0  0  0  0  0  0  0  0  0
    1.6218   -0.1910   -0.0196 H   0  0  0  0  0  0  0  0  0  0  0  0
    5.1395    0.9558   -0.1316 H   0  0  0  0  0  0  0  0  0  0  0  0
    3.7823    1.3349   -1.1938 H   0  0  0  0  0  0  0  0  0  0  0  0
    4.4928   -1.4757   -0.1541 H   0  0  0  0  0  0  0  0  0  0  0  0
    4.9239   -0.8564   -1.7670 H   0  0  0  0  0  0  0  0  0  0  0  0
    3.2282   -1.1157   -1.3251 H   0  0  0  0  0  0  0  0  0  0  0  0
  1  2  1  0
  2  3  1  0
  3  4  1  0
  4  5  1  0
  5  6  1  0
  6  7  1  0
  7  8  1  0
  8  9  1  0
  9 10  1  0
 10 11  1  0
  1 12  1  0
  1 13  1  0
  1 14  1  0
  2 15  1  0
  2 16  1  0
  4 17  1  0
  4 18  1  0
  5 19  1  0
  5 20  1  0
  7 21  1  0
  7 22  1  0
  8 23  1  0
  8 24  1  0
 10 25  1  0
 10 26  1  0
 11 27  1  0
 11 28  1  0
 11 29  1  0
M  END
>  <anchor_atom_maps>  (23) 
1,2

>  <distance_A>  (23) 
8.72626853276818

>  <Rg_A>  (23) 
3.240939120534047

>  <energy_kcal_mol>  (23) 
49.23086192440478

>  <ensemble>  (23) 
ETKDGv3 unweighted sampling; not a thermodynamic population

$$$$
Flexible PEG synthetic attachment-point proxy 23
     RDKit          3D

 29 28  0  0  0  0  0  0  0  0999 V2000
    4.3730    1.4198   -0.9031 C   0  0  0  0  0  0  0  0  0  1  0  0
    3.3437    1.3191    0.2088 C   0  0  0  0  0  0  0  0  0  0  0  0
    3.3390    0.0104    0.7748 O   0  0  0  0  0  0  0  0  0  0  0  0
    2.5189   -0.9232    0.0719 C   0  0  0  0  0  0  0  0  0  0  0  0
    1.0763   -0.8837    0.5748 C   0  0  0  0  0  0  0  0  0  0  0  0
    0.2960   -1.8241   -0.1632 O   0  0  0  0  0  0  0  0  0  0  0  0
   -1.0552   -1.9056    0.2927 C   0  0  0  0  0  0  0  0  0  0  0  0
   -1.9320   -0.8061   -0.3054 C   0  0  0  0  0  0  0  0  0  0  0  0
   -3.2716   -0.9733    0.1574 O   0  0  0  0  0  0  0  0  0  0  0  0
   -4.1914   -0.0547   -0.4290 C   0  0  0  0  0  0  0  0  0  0  0  0
   -4.1083    1.3138    0.2234 C   0  0  0  0  0  0  0  0  0  2  0  0
    4.1241    0.7576   -1.7376 H   0  0  0  0  0  0  0  0  0  0  0  0
    5.3610    1.1181   -0.5403 H   0  0  0  0  0  0  0  0  0  0  0  0
    4.4338    2.4443   -1.2813 H   0  0  0  0  0  0  0  0  0  0  0  0
    2.3477    1.6041   -0.1463 H   0  0  0  0  0  0  0  0  0  0  0  0
    3.6183    2.0135    1.0096 H   0  0  0  0  0  0  0  0  0  0  0  0
    2.9295   -1.9231    0.2534 H   0  0  0  0  0  0  0  0  0  0  0  0
    2.5637   -0.7681   -1.0122 H   0  0  0  0  0  0  0  0  0  0  0  0
    1.0558   -1.1302    1.6431 H   0  0  0  0  0  0  0  0  0  0  0  0
    0.6629    0.1229    0.4583 H   0  0  0  0  0  0  0  0  0  0  0  0
   -1.1030   -1.9018    1.3885 H   0  0  0  0  0  0  0  0  0  0  0  0
   -1.4467   -2.8795   -0.0230 H   0  0  0  0  0  0  0  0  0  0  0  0
   -1.5554    0.1781   -0.0121 H   0  0  0  0  0  0  0  0  0  0  0  0
   -1.8976   -0.8656   -1.3997 H   0  0  0  0  0  0  0  0  0  0  0  0
   -5.1942   -0.4630   -0.2656 H   0  0  0  0  0  0  0  0  0  0  0  0
   -4.0377    0.0092   -1.5121 H   0  0  0  0  0  0  0  0  0  0  0  0
   -4.2015    1.2291    1.3110 H   0  0  0  0  0  0  0  0  0  0  0  0
   -3.1472    1.7948    0.0191 H   0  0  0  0  0  0  0  0  0  0  0  0
   -4.9021    1.9671   -0.1503 H   0  0  0  0  0  0  0  0  0  0  0  0
  1  2  1  0
  2  3  1  0
  3  4  1  0
  4  5  1  0
  5  6  1  0
  6  7  1  0
  7  8  1  0
  8  9  1  0
  9 10  1  0
 10 11  1  0
  1 12  1  0
  1 13  1  0
  1 14  1  0
  2 15  1  0
  2 16  1  0
  4 17  1  0
  4 18  1  0
  5 19  1  0
  5 20  1  0
  7 21  1  0
  7 22  1  0
  8 23  1  0
  8 24  1  0
 10 25  1  0
 10 26  1  0
 11 27  1  0
 11 28  1  0
 11 29  1  0
M  END
>  <anchor_atom_maps>  (24) 
1,2

>  <distance_A>  (24) 
8.55639018613911

>  <Rg_A>  (24) 
3.2976822819757383

>  <energy_kcal_mol>  (24) 
49.56818765563561

>  <ensemble>  (24) 
ETKDGv3 unweighted sampling; not a thermodynamic population

$$$$
Flexible PEG synthetic attachment-point proxy 24
     RDKit          3D

 29 28  0  0  0  0  0  0  0  0999 V2000
    4.9063    0.9898    0.1558 C   0  0  0  0  0  0  0  0  0  1  0  0
    3.4031    0.9571   -0.0393 C   0  0  0  0  0  0  0  0  0  0  0  0
    3.0618   -0.2681   -0.6835 O   0  0  0  0  0  0  0  0  0  0  0  0
    1.6622   -0.3959   -0.9332 C   0  0  0  0  0  0  0  0  0  0  0  0
    0.9090   -0.9216    0.2871 C   0  0  0  0  0  0  0  0  0  0  0  0
   -0.4745   -1.0617   -0.0375 O   0  0  0  0  0  0  0  0  0  0  0  0
   -1.2231   -1.5844    1.0666 C   0  0  0  0  0  0  0  0  0  0  0  0
   -2.7042   -1.6769    0.6924 C   0  0  0  0  0  0  0  0  0  0  0  0
   -3.4034   -0.4384    0.8644 O   0  0  0  0  0  0  0  0  0  0  0  0
   -3.0617    0.5452   -0.1098 C   0  0  0  0  0  0  0  0  0  0  0  0
   -4.0415    1.6962    0.0168 C   0  0  0  0  0  0  0  0  0  2  0  0
    5.2344    0.1414    0.7654 H   0  0  0  0  0  0  0  0  0  0  0  0
    5.2161    1.9172    0.6457 H   0  0  0  0  0  0  0  0  0  0  0  0
    5.4221    0.9091   -0.8067 H   0  0  0  0  0  0  0  0  0  0  0  0
    3.0929    1.8020   -0.6637 H   0  0  0  0  0  0  0  0  0  0  0  0
    2.9049    1.0268    0.9326 H   0  0  0  0  0  0  0  0  0  0  0  0
    1.2355    0.5504   -1.2878 H   0  0  0  0  0  0  0  0  0  0  0  0
    1.5413   -1.1091   -1.7566 H   0  0  0  0  0  0  0  0  0  0  0  0
    1.3261   -1.8894    0.5897 H   0  0  0  0  0  0  0  0  0  0  0  0
    1.0179   -0.2321    1.1312 H   0  0  0  0  0  0  0  0  0  0  0  0
   -0.8443   -2.5873    1.2919 H   0  0  0  0  0  0  0  0  0  0  0  0
   -1.0908   -0.9344    1.9387 H   0  0  0  0  0  0  0  0  0  0  0  0
   -2.8425   -2.0389   -0.3327 H   0  0  0  0  0  0  0  0  0  0  0  0
   -3.1900   -2.3876    1.3691 H   0  0  0  0  0  0  0  0  0  0  0  0
   -2.0489    0.9154    0.0737 H   0  0  0  0  0  0  0  0  0  0  0  0
   -3.1200    0.1200   -1.1176 H   0  0  0  0  0  0  0  0  0  0  0  0
   -3.8164    2.4817   -0.7100 H   0  0  0  0  0  0  0  0  0  0  0  0
   -5.0673    1.3485   -0.1446 H   0  0  0  0  0  0  0  0  0  0  0  0
   -4.0049    2.1250    1.0238 H   0  0  0  0  0  0  0  0  0  0  0  0
  1  2  1  0
  2  3  1  0
  3  4  1  0
  4  5  1  0
  5  6  1  0
  6  7  1  0
  7  8  1  0
  8  9  1  0
  9 10  1  0
 10 11  1  0
  1 12  1  0
  1 13  1  0
  1 14  1  0
  2 15  1  0
  2 16  1  0
  4 17  1  0
  4 18  1  0
  5 19  1  0
  5 20  1  0
  7 21  1  0
  7 22  1  0
  8 23  1  0
  8 24  1  0
 10 25  1  0
 10 26  1  0
 11 27  1  0
 11 28  1  0
 11 29  1  0
M  END
>  <anchor_atom_maps>  (25) 
1,2

>  <distance_A>  (25) 
8.976700048810542

>  <Rg_A>  (25) 
3.2285906247956864

>  <energy_kcal_mol>  (25) 
46.158683244909604

>  <ensemble>  (25) 
ETKDGv3 unweighted sampling; not a thermodynamic population

$$$$
Flexible PEG synthetic attachment-point proxy 25
     RDKit          3D

 29 28  0  0  0  0  0  0  0  0999 V2000
    4.2558    1.3872    0.2804 C   0  0  0  0  0  0  0  0  0  1  0  0
    2.9667    0.9141    0.9282 C   0  0  0  0  0  0  0  0  0  0  0  0
    1.9654    0.6089   -0.0390 O   0  0  0  0  0  0  0  0  0  0  0  0
    2.2043   -0.6175   -0.7398 C   0  0  0  0  0  0  0  0  0  0  0  0
    0.9421   -1.0047   -1.5096 C   0  0  0  0  0  0  0  0  0  0  0  0
    0.0142   -1.6278   -0.6148 O   0  0  0  0  0  0  0  0  0  0  0  0
   -1.2935   -1.7739   -1.1794 C   0  0  0  0  0  0  0  0  0  0  0  0
   -2.1539   -0.5311   -0.9342 C   0  0  0  0  0  0  0  0  0  0  0  0
   -2.5929   -0.5147    0.4284 O   0  0  0  0  0  0  0  0  0  0  0  0
   -3.2893    0.6869    0.7455 C   0  0  0  0  0  0  0  0  0  0  0  0
   -3.7395    0.6126    2.1909 C   0  0  0  0  0  0  0  0  0  2  0  0
    4.7351    0.5818   -0.2842 H   0  0  0  0  0  0  0  0  0  0  0  0
    4.0582    2.2022   -0.4234 H   0  0  0  0  0  0  0  0  0  0  0  0
    4.9620    1.7372    1.0390 H   0  0  0  0  0  0  0  0  0  0  0  0
    2.5680    1.7207    1.5524 H   0  0  0  0  0  0  0  0  0  0  0  0
    3.1425    0.0537    1.5835 H   0  0  0  0  0  0  0  0  0  0  0  0
    3.0227   -0.4572   -1.4483 H   0  0  0  0  0  0  0  0  0  0  0  0
    2.4742   -1.4084   -0.0312 H   0  0  0  0  0  0  0  0  0  0  0  0
    0.4931   -0.1182   -1.9700 H   0  0  0  0  0  0  0  0  0  0  0  0
    1.1948   -1.7320   -2.2885 H   0  0  0  0  0  0  0  0  0  0  0  0
   -1.2149   -1.9892   -2.2511 H   0  0  0  0  0  0  0  0  0  0  0  0
   -1.7519   -2.6403   -0.6912 H   0  0  0  0  0  0  0  0  0  0  0  0
   -3.0390   -0.5692   -1.5784 H   0  0  0  0  0  0  0  0  0  0  0  0
   -1.5887    0.3828   -1.1441 H   0  0  0  0  0  0  0  0  0  0  0  0
   -4.1595    0.7950    0.0889 H   0  0  0  0  0  0  0  0  0  0  0  0
   -2.6253    1.5472    0.6073 H   0  0  0  0  0  0  0  0  0  0  0  0
   -4.2803    1.5186    2.4782 H   0  0  0  0  0  0  0  0  0  0  0  0
   -2.8792    0.4882    2.8568 H   0  0  0  0  0  0  0  0  0  0  0  0
   -4.3915   -0.2531    2.3477 H   0  0  0  0  0  0  0  0  0  0  0  0
  1  2  1  0
  2  3  1  0
  3  4  1  0
  4  5  1  0
  5  6  1  0
  6  7  1  0
  7  8  1  0
  8  9  1  0
  9 10  1  0
 10 11  1  0
  1 12  1  0
  1 13  1  0
  1 14  1  0
  2 15  1  0
  2 16  1  0
  4 17  1  0
  4 18  1  0
  5 19  1  0
  5 20  1  0
  7 21  1  0
  7 22  1  0
  8 23  1  0
  8 24  1  0
 10 25  1  0
 10 26  1  0
 11 27  1  0
 11 28  1  0
 11 29  1  0
M  END
>  <anchor_atom_maps>  (26) 
1,2

>  <distance_A>  (26) 
8.25683445983184

>  <Rg_A>  (26) 
3.03620553745563

>  <energy_kcal_mol>  (26) 
51.03217356408949

>  <ensemble>  (26) 
ETKDGv3 unweighted sampling; not a thermodynamic population

$$$$
Flexible PEG synthetic attachment-point proxy 26
     RDKit          3D

 29 28  0  0  0  0  0  0  0  0999 V2000
    5.3408    0.4569   -1.1792 C   0  0  0  0  0  0  0  0  0  1  0  0
    4.0552    0.6571   -0.4007 C   0  0  0  0  0  0  0  0  0  0  0  0
    3.6361   -0.6083    0.1047 O   0  0  0  0  0  0  0  0  0  0  0  0
    2.4333   -0.5325    0.8699 C   0  0  0  0  0  0  0  0  0  0  0  0
    1.1894   -0.5750   -0.0156 C   0  0  0  0  0  0  0  0  0  0  0  0
    0.0227   -0.5233    0.8063 O   0  0  0  0  0  0  0  0  0  0  0  0
   -1.1717   -0.5982    0.0272 C   0  0  0  0  0  0  0  0  0  0  0  0
   -2.3834   -0.5800    0.9570 C   0  0  0  0  0  0  0  0  0  0  0  0
   -3.6114   -0.6797    0.2358 O   0  0  0  0  0  0  0  0  0  0  0  0
   -4.0733    0.5769   -0.2537 C   0  0  0  0  0  0  0  0  0  0  0  0
   -5.3820    0.3512   -0.9852 C   0  0  0  0  0  0  0  0  0  2  0  0
    6.1172    0.0267   -0.5378 H   0  0  0  0  0  0  0  0  0  0  0  0
    5.7033    1.4058   -1.5844 H   0  0  0  0  0  0  0  0  0  0  0  0
    5.1856   -0.2443   -2.0058 H   0  0  0  0  0  0  0  0  0  0  0  0
    3.2882    1.0760   -1.0593 H   0  0  0  0  0  0  0  0  0  0  0  0
    4.2307    1.3476    0.4314 H   0  0  0  0  0  0  0  0  0  0  0  0
    2.4181   -1.3988    1.5412 H   0  0  0  0  0  0  0  0  0  0  0  0
    2.4318    0.3525    1.5180 H   0  0  0  0  0  0  0  0  0  0  0  0
    1.1925   -1.4962   -0.6103 H   0  0  0  0  0  0  0  0  0  0  0  0
    1.1835    0.2712   -0.7110 H   0  0  0  0  0  0  0  0  0  0  0  0
   -1.2077    0.2477   -0.6677 H   0  0  0  0  0  0  0  0  0  0  0  0
   -1.1782   -1.5196   -0.5674 H   0  0  0  0  0  0  0  0  0  0  0  0
   -2.3759    0.3052    1.6049 H   0  0  0  0  0  0  0  0  0  0  0  0
   -2.3269   -1.4455    1.6271 H   0  0  0  0  0  0  0  0  0  0  0  0
   -4.2321    1.2642    0.5844 H   0  0  0  0  0  0  0  0  0  0  0  0
   -3.3390    1.0106   -0.9395 H   0  0  0  0  0  0  0  0  0  0  0  0
   -6.1261   -0.0939   -0.3163 H   0  0  0  0  0  0  0  0  0  0  0  0
   -5.7776    1.2926   -1.3768 H   0  0  0  0  0  0  0  0  0  0  0  0
   -5.2431   -0.3471   -1.8171 H   0  0  0  0  0  0  0  0  0  0  0  0
  1  2  1  0
  2  3  1  0
  3  4  1  0
  4  5  1  0
  5  6  1  0
  6  7  1  0
  7  8  1  0
  8  9  1  0
  9 10  1  0
 10 11  1  0
  1 12  1  0
  1 13  1  0
  1 14  1  0
  2 15  1  0
  2 16  1  0
  4 17  1  0
  4 18  1  0
  5 19  1  0
  5 20  1  0
  7 21  1  0
  7 22  1  0
  8 23  1  0
  8 24  1  0
 10 25  1  0
 10 26  1  0
 11 27  1  0
 11 28  1  0
 11 29  1  0
M  END
>  <anchor_atom_maps>  (27) 
1,2

>  <distance_A>  (27) 
10.725101756457116

>  <Rg_A>  (27) 
3.608754009653635

>  <energy_kcal_mol>  (27) 
46.61951320536264

>  <ensemble>  (27) 
ETKDGv3 unweighted sampling; not a thermodynamic population

$$$$
Flexible PEG synthetic attachment-point proxy 27
     RDKit          3D

 29 28  0  0  0  0  0  0  0  0999 V2000
   -4.9587    0.2550    1.2326 C   0  0  0  0  0  0  0  0  0  1  0  0
   -4.1006   -0.9328    0.8352 C   0  0  0  0  0  0  0  0  0  0  0  0
   -2.7115   -0.6521    0.9964 O   0  0  0  0  0  0  0  0  0  0  0  0
   -2.1641    0.1082   -0.0803 C   0  0  0  0  0  0  0  0  0  0  0  0
   -0.6706    0.3083    0.1589 C   0  0  0  0  0  0  0  0  0  0  0  0
   -0.1159    1.0584   -0.9213 O   0  0  0  0  0  0  0  0  0  0  0  0
    1.2786    1.3207   -0.7581 C   0  0  0  0  0  0  0  0  0  0  0  0
    2.1445    0.1364   -1.1947 C   0  0  0  0  0  0  0  0  0  0  0  0
    3.5356    0.4398   -1.0855 O   0  0  0  0  0  0  0  0  0  0  0  0
    4.0815    0.2125    0.2121 C   0  0  0  0  0  0  0  0  0  0  0  0
    4.5017   -1.2378    0.3720 C   0  0  0  0  0  0  0  0  0  2  0  0
   -4.8126    1.0982    0.5511 H   0  0  0  0  0  0  0  0  0  0  0  0
   -6.0189   -0.0143    1.2190 H   0  0  0  0  0  0  0  0  0  0  0  0
   -4.6945    0.6031    2.2365 H   0  0  0  0  0  0  0  0  0  0  0  0
   -4.3154   -1.2561   -0.1895 H   0  0  0  0  0  0  0  0  0  0  0  0
   -4.3330   -1.7730    1.4979 H   0  0  0  0  0  0  0  0  0  0  0  0
   -2.3182   -0.4180   -1.0299 H   0  0  0  0  0  0  0  0  0  0  0  0
   -2.6561    1.0840   -0.1540 H   0  0  0  0  0  0  0  0  0  0  0  0
   -0.5179    0.8418    1.1047 H   0  0  0  0  0  0  0  0  0  0  0  0
   -0.1794   -0.6671    0.2432 H   0  0  0  0  0  0  0  0  0  0  0  0
    1.5234    2.1839   -1.3877 H   0  0  0  0  0  0  0  0  0  0  0  0
    1.4952    1.6299    0.2707 H   0  0  0  0  0  0  0  0  0  0  0  0
    1.8953   -0.7770   -0.6456 H   0  0  0  0  0  0  0  0  0  0  0  0
    1.9377   -0.0793   -2.2491 H   0  0  0  0  0  0  0  0  0  0  0  0
    3.3803    0.5100    0.9988 H   0  0  0  0  0  0  0  0  0  0  0  0
    4.9671    0.8499    0.3029 H   0  0  0  0  0  0  0  0  0  0  0  0
    4.9975   -1.3922    1.3347 H   0  0  0  0  0  0  0  0  0  0  0  0
    3.6408   -1.9106    0.3152 H   0  0  0  0  0  0  0  0  0  0  0  0
    5.1881   -1.5297   -0.4296 H   0  0  0  0  0  0  0  0  0  0  0  0
  1  2  1  0
  2  3  1  0
  3  4  1  0
  4  5  1  0
  5  6  1  0
  6  7  1  0
  7  8  1  0
  8  9  1  0
  9 10  1  0
 10 11  1  0
  1 12  1  0
  1 13  1  0
  1 14  1  0
  2 15  1  0
  2 16  1  0
  4 17  1  0
  4 18  1  0
  5 19  1  0
  5 20  1  0
  7 21  1  0
  7 22  1  0
  8 23  1  0
  8 24  1  0
 10 25  1  0
 10 26  1  0
 11 27  1  0
 11 28  1  0
 11 29  1  0
M  END
>  <anchor_atom_maps>  (28) 
1,2

>  <distance_A>  (28) 
9.616093718158044

>  <Rg_A>  (28) 
3.3949666963312115

>  <energy_kcal_mol>  (28) 
49.32789426237386

>  <ensemble>  (28) 
ETKDGv3 unweighted sampling; not a thermodynamic population

$$$$
Flexible PEG synthetic attachment-point proxy 28
     RDKit          3D

 29 28  0  0  0  0  0  0  0  0999 V2000
    4.8817   -1.0071    0.0948 C   0  0  0  0  0  0  0  0  0  1  0  0
    3.3806   -1.1105   -0.0879 C   0  0  0  0  0  0  0  0  0  0  0  0
    2.7764    0.0481    0.4830 O   0  0  0  0  0  0  0  0  0  0  0  0
    1.3559    0.0223    0.3461 C   0  0  0  0  0  0  0  0  0  0  0  0
    0.7644    1.2685    1.0024 C   0  0  0  0  0  0  0  0  0  0  0  0
   -0.6618    1.2831    0.9278 O   0  0  0  0  0  0  0  0  0  0  0  0
   -1.1469    1.8211   -0.3078 C   0  0  0  0  0  0  0  0  0  0  0  0
   -2.6752    1.7449   -0.3405 C   0  0  0  0  0  0  0  0  0  0  0  0
   -3.1595    0.4625   -0.7577 O   0  0  0  0  0  0  0  0  0  0  0  0
   -2.9980   -0.5522    0.2310 C   0  0  0  0  0  0  0  0  0  0  0  0
   -3.7681   -1.7786   -0.2204 C   0  0  0  0  0  0  0  0  0  2  0  0
    5.1366   -0.9336    1.1572 H   0  0  0  0  0  0  0  0  0  0  0  0
    5.2677   -0.1036   -0.3887 H   0  0  0  0  0  0  0  0  0  0  0  0
    5.3875   -1.8786   -0.3303 H   0  0  0  0  0  0  0  0  0  0  0  0
    3.1383   -1.1666   -1.1549 H   0  0  0  0  0  0  0  0  0  0  0  0
    3.0054   -2.0090    0.4141 H   0  0  0  0  0  0  0  0  0  0  0  0
    1.0908   -0.0161   -0.7159 H   0  0  0  0  0  0  0  0  0  0  0  0
    0.9463   -0.8754    0.8246 H   0  0  0  0  0  0  0  0  0  0  0  0
    1.0356    1.2708    2.0643 H   0  0  0  0  0  0  0  0  0  0  0  0
    1.1924    2.1849    0.5779 H   0  0  0  0  0  0  0  0  0  0  0  0
   -0.8380    2.8705   -0.3660 H   0  0  0  0  0  0  0  0  0  0  0  0
   -0.7252    1.2662   -1.1517 H   0  0  0  0  0  0  0  0  0  0  0  0
   -3.1170    2.0108    0.6265 H   0  0  0  0  0  0  0  0  0  0  0  0
   -3.0428    2.4574   -1.0862 H   0  0  0  0  0  0  0  0  0  0  0  0
   -1.9400   -0.8110    0.3306 H   0  0  0  0  0  0  0  0  0  0  0  0
   -3.3843   -0.2087    1.1967 H   0  0  0  0  0  0  0  0  0  0  0  0
   -3.6704   -2.5899    0.5063 H   0  0  0  0  0  0  0  0  0  0  0  0
   -4.8299   -1.5423   -0.3460 H   0  0  0  0  0  0  0  0  0  0  0  0
   -3.4023   -2.1279   -1.1917 H   0  0  0  0  0  0  0  0  0  0  0  0
  1  2  1  0
  2  3  1  0
  3  4  1  0
  4  5  1  0
  5  6  1  0
  6  7  1  0
  7  8  1  0
  8  9  1  0
  9 10  1  0
 10 11  1  0
  1 12  1  0
  1 13  1  0
  1 14  1  0
  2 15  1  0
  2 16  1  0
  4 17  1  0
  4 18  1  0
  5 19  1  0
  5 20  1  0
  7 21  1  0
  7 22  1  0
  8 23  1  0
  8 24  1  0
 10 25  1  0
 10 26  1  0
 11 27  1  0
 11 28  1  0
 11 29  1  0
M  END
>  <anchor_atom_maps>  (29) 
1,2

>  <distance_A>  (29) 
8.689803139281317

>  <Rg_A>  (29) 
3.149922079029453

>  <energy_kcal_mol>  (29) 
45.893054393812946

>  <ensemble>  (29) 
ETKDGv3 unweighted sampling; not a thermodynamic population

$$$$
Flexible PEG synthetic attachment-point proxy 29
     RDKit          3D

 29 28  0  0  0  0  0  0  0  0999 V2000
    4.7673    0.3858    1.1646 C   0  0  0  0  0  0  0  0  0  1  0  0
    4.0600   -0.6564    0.3168 C   0  0  0  0  0  0  0  0  0  0  0  0
    2.8779   -0.1377   -0.2876 O   0  0  0  0  0  0  0  0  0  0  0  0
    1.7873    0.0104    0.6296 C   0  0  0  0  0  0  0  0  0  0  0  0
    0.5086    0.3043   -0.1553 C   0  0  0  0  0  0  0  0  0  0  0  0
    0.0046   -0.9149   -0.7064 O   0  0  0  0  0  0  0  0  0  0  0  0
   -0.9701   -0.7291   -1.7368 C   0  0  0  0  0  0  0  0  0  0  0  0
   -2.2614   -0.0472   -1.2721 C   0  0  0  0  0  0  0  0  0  0  0  0
   -2.9165   -0.8626   -0.2982 O   0  0  0  0  0  0  0  0  0  0  0  0
   -4.1237   -0.2923    0.1990 C   0  0  0  0  0  0  0  0  0  0  0  0
   -3.8437    0.7178    1.2975 C   0  0  0  0  0  0  0  0  0  2  0  0
    4.9290    1.3048    0.5920 H   0  0  0  0  0  0  0  0  0  0  0  0
    4.1726    0.6531    2.0433 H   0  0  0  0  0  0  0  0  0  0  0  0
    5.7341    0.0089    1.5106 H   0  0  0  0  0  0  0  0  0  0  0  0
    4.7253   -0.9590   -0.4987 H   0  0  0  0  0  0  0  0  0  0  0  0
    3.8313   -1.5557    0.8994 H   0  0  0  0  0  0  0  0  0  0  0  0
    2.0026    0.8531    1.2937 H   0  0  0  0  0  0  0  0  0  0  0  0
    1.6678   -0.9063    1.2180 H   0  0  0  0  0  0  0  0  0  0  0  0
   -0.2437    0.7109    0.5277 H   0  0  0  0  0  0  0  0  0  0  0  0
    0.7127    1.0231   -0.9569 H   0  0  0  0  0  0  0  0  0  0  0  0
   -1.2095   -1.7299   -2.1121 H   0  0  0  0  0  0  0  0  0  0  0  0
   -0.5159   -0.1666   -2.5603 H   0  0  0  0  0  0  0  0  0  0  0  0
   -2.0452    0.9375   -0.8490 H   0  0  0  0  0  0  0  0  0  0  0  0
   -2.9268    0.0803   -2.1334 H   0  0  0  0  0  0  0  0  0  0  0  0
   -4.7088    0.1526   -0.6137 H   0  0  0  0  0  0  0  0  0  0  0  0
   -4.7154   -1.1133    0.6171 H   0  0  0  0  0  0  0  0  0  0  0  0
   -4.7777    1.0653    1.7485 H   0  0  0  0  0  0  0  0  0  0  0  0
   -3.3059    1.5886    0.9112 H   0  0  0  0  0  0  0  0  0  0  0  0
   -3.2169    0.2743    2.0780 H   0  0  0  0  0  0  0  0  0  0  0  0
  1  2  1  0
  2  3  1  0
  3  4  1  0
  4  5  1  0
  5  6  1  0
  6  7  1  0
  7  8  1  0
  8  9  1  0
  9 10  1  0
 10 11  1  0
  1 12  1  0
  1 13  1  0
  1 14  1  0
  2 15  1  0
  2 16  1  0
  4 17  1  0
  4 18  1  0
  5 19  1  0
  5 20  1  0
  7 21  1  0
  7 22  1  0
  8 23  1  0
  8 24  1  0
 10 25  1  0
 10 26  1  0
 11 27  1  0
 11 28  1  0
 11 29  1  0
M  END
>  <anchor_atom_maps>  (30) 
1,2

>  <distance_A>  (30) 
8.61845677885704

>  <Rg_A>  (30) 
3.2029765895576503

>  <energy_kcal_mol>  (30) 
52.03813662751302

>  <ensemble>  (30) 
ETKDGv3 unweighted sampling; not a thermodynamic population

$$$$
Flexible PEG synthetic attachment-point proxy 30
     RDKit          3D

 29 28  0  0  0  0  0  0  0  0999 V2000
    5.6659    0.0274    0.4108 C   0  0  0  0  0  0  0  0  0  1  0  0
    4.2894    0.4299   -0.0812 C   0  0  0  0  0  0  0  0  0  0  0  0
    3.3608    0.2419    0.9844 O   0  0  0  0  0  0  0  0  0  0  0  0
    2.0278    0.6186    0.6374 C   0  0  0  0  0  0  0  0  0  0  0  0
    1.2911   -0.4987   -0.1048 C   0  0  0  0  0  0  0  0  0  0  0  0
   -0.0334   -0.1165   -0.4790 O   0  0  0  0  0  0  0  0  0  0  0  0
   -0.9725   -0.2477    0.5887 C   0  0  0  0  0  0  0  0  0  0  0  0
   -2.3641    0.1204    0.0822 C   0  0  0  0  0  0  0  0  0  0  0  0
   -3.2999   -0.0011    1.1526 O   0  0  0  0  0  0  0  0  0  0  0  0
   -4.6262    0.3719    0.7841 C   0  0  0  0  0  0  0  0  0  0  0  0
   -5.3314   -0.7450    0.0355 C   0  0  0  0  0  0  0  0  0  2  0  0
    5.6697   -1.0196    0.7316 H   0  0  0  0  0  0  0  0  0  0  0  0
    6.4150    0.1586   -0.3750 H   0  0  0  0  0  0  0  0  0  0  0  0
    5.9559    0.6279    1.2794 H   0  0  0  0  0  0  0  0  0  0  0  0
    4.0120   -0.1878   -0.9408 H   0  0  0  0  0  0  0  0  0  0  0  0
    4.2981    1.4829   -0.3828 H   0  0  0  0  0  0  0  0  0  0  0  0
    1.5089    0.8380    1.5759 H   0  0  0  0  0  0  0  0  0  0  0  0
    2.0178    1.5515    0.0606 H   0  0  0  0  0  0  0  0  0  0  0  0
    1.8228   -0.7346   -1.0321 H   0  0  0  0  0  0  0  0  0  0  0  0
    1.2834   -1.4254    0.4819 H   0  0  0  0  0  0  0  0  0  0  0  0
   -0.7014    0.4088    1.4224 H   0  0  0  0  0  0  0  0  0  0  0  0
   -0.9778   -1.2788    0.9619 H   0  0  0  0  0  0  0  0  0  0  0  0
   -2.6373   -0.5412   -0.7468 H   0  0  0  0  0  0  0  0  0  0  0  0
   -2.3577    1.1489   -0.2979 H   0  0  0  0  0  0  0  0  0  0  0  0
   -5.1693    0.5709    1.7139 H   0  0  0  0  0  0  0  0  0  0  0  0
   -4.6213    1.3013    0.2036 H   0  0  0  0  0  0  0  0  0  0  0  0
   -5.2795   -1.6810    0.6010 H   0  0  0  0  0  0  0  0  0  0  0  0
   -6.3820   -0.4915   -0.1337 H   0  0  0  0  0  0  0  0  0  0  0  0
   -4.8648   -0.9301   -0.9364 H   0  0  0  0  0  0  0  0  0  0  0  0
  1  2  1  0
  2  3  1  0
  3  4  1  0
  4  5  1  0
  5  6  1  0
  6  7  1  0
  7  8  1  0
  8  9  1  0
  9 10  1  0
 10 11  1  0
  1 12  1  0
  1 13  1  0
  1 14  1  0
  2 15  1  0
  2 16  1  0
  4 17  1  0
  4 18  1  0
  5 19  1  0
  5 20  1  0
  7 21  1  0
  7 22  1  0
  8 23  1  0
  8 24  1  0
 10 25  1  0
 10 26  1  0
 11 27  1  0
 11 28  1  0
 11 29  1  0
M  END
>  <anchor_atom_maps>  (31) 
1,2

>  <distance_A>  (31) 
11.030833379970788

>  <Rg_A>  (31) 
3.6074300553099956

>  <energy_kcal_mol>  (31) 
47.60486270870683

>  <ensemble>  (31) 
ETKDGv3 unweighted sampling; not a thermodynamic population

$$$$
Flexible PEG synthetic attachment-point proxy 31
     RDKit          3D

 29 28  0  0  0  0  0  0  0  0999 V2000
    4.8291   -0.1949   -0.0946 C   0  0  0  0  0  0  0  0  0  1  0  0
    3.6220   -1.0771    0.1691 C   0  0  0  0  0  0  0  0  0  0  0  0
    2.5232   -0.7295   -0.6687 O   0  0  0  0  0  0  0  0  0  0  0  0
    1.8091    0.4264   -0.2266 C   0  0  0  0  0  0  0  0  0  0  0  0
    0.6035    0.6740   -1.1400 C   0  0  0  0  0  0  0  0  0  0  0  0
   -0.3591   -0.3824   -1.1672 O   0  0  0  0  0  0  0  0  0  0  0  0
   -0.9736   -0.7217    0.0737 C   0  0  0  0  0  0  0  0  0  0  0  0
   -1.6911    0.4347    0.7829 C   0  0  0  0  0  0  0  0  0  0  0  0
   -2.5585    1.2094   -0.0455 O   0  0  0  0  0  0  0  0  0  0  0  0
   -3.6197    0.5012   -0.6797 C   0  0  0  0  0  0  0  0  0  0  0  0
   -4.6466   -0.0188    0.3106 C   0  0  0  0  0  0  0  0  0  2  0  0
    5.6981   -0.5545    0.4642 H   0  0  0  0  0  0  0  0  0  0  0  0
    5.0736   -0.1840   -1.1617 H   0  0  0  0  0  0  0  0  0  0  0  0
    4.6382    0.8404    0.2028 H   0  0  0  0  0  0  0  0  0  0  0  0
    3.8847   -2.1137   -0.0665 H   0  0  0  0  0  0  0  0  0  0  0  0
    3.3288   -1.0472    1.2245 H   0  0  0  0  0  0  0  0  0  0  0  0
    1.4884    0.2800    0.8095 H   0  0  0  0  0  0  0  0  0  0  0  0
    2.4660    1.3010   -0.2695 H   0  0  0  0  0  0  0  0  0  0  0  0
    0.1089    1.6144   -0.8764 H   0  0  0  0  0  0  0  0  0  0  0  0
    0.9598    0.7784   -2.1708 H   0  0  0  0  0  0  0  0  0  0  0  0
   -0.2343   -1.1776    0.7409 H   0  0  0  0  0  0  0  0  0  0  0  0
   -1.6983   -1.5108   -0.1532 H   0  0  0  0  0  0  0  0  0  0  0  0
   -2.2416    0.0635    1.6539 H   0  0  0  0  0  0  0  0  0  0  0  0
   -0.9451    1.1353    1.1728 H   0  0  0  0  0  0  0  0  0  0  0  0
   -3.2315   -0.3031   -1.3118 H   0  0  0  0  0  0  0  0  0  0  0  0
   -4.1115    1.2150   -1.3493 H   0  0  0  0  0  0  0  0  0  0  0  0
   -4.2307   -0.8191    0.9301 H   0  0  0  0  0  0  0  0  0  0  0  0
   -4.9729    0.7789    0.9854 H   0  0  0  0  0  0  0  0  0  0  0  0
   -5.5191   -0.4181   -0.2148 H   0  0  0  0  0  0  0  0  0  0  0  0
  1  2  1  0
  2  3  1  0
  3  4  1  0
  4  5  1  0
  5  6  1  0
  6  7  1  0
  7  8  1  0
  8  9  1  0
  9 10  1  0
 10 11  1  0
  1 12  1  0
  1 13  1  0
  1 14  1  0
  2 15  1  0
  2 16  1  0
  4 17  1  0
  4 18  1  0
  5 19  1  0
  5 20  1  0
  7 21  1  0
  7 22  1  0
  8 23  1  0
  8 24  1  0
 10 25  1  0
 10 26  1  0
 11 27  1  0
 11 28  1  0
 11 29  1  0
M  END
>  <anchor_atom_maps>  (32) 
1,2

>  <distance_A>  (32) 
9.485989877853415

>  <Rg_A>  (32) 
3.0768981345159125

>  <energy_kcal_mol>  (32) 
55.03890898903035

>  <ensemble>  (32) 
ETKDGv3 unweighted sampling; not a thermodynamic population

$$$$
Flexible PEG synthetic attachment-point proxy 32
     RDKit          3D

 29 28  0  0  0  0  0  0  0  0999 V2000
    5.7020   -0.1641   -0.1660 C   0  0  0  0  0  0  0  0  0  1  0  0
    4.3671    0.5293   -0.3520 C   0  0  0  0  0  0  0  0  0  0  0  0
    3.3597   -0.2545    0.2830 O   0  0  0  0  0  0  0  0  0  0  0  0
    2.0672    0.3355    0.1455 C   0  0  0  0  0  0  0  0  0  0  0  0
    1.0389   -0.5205    0.8823 C   0  0  0  0  0  0  0  0  0  0  0  0
   -0.2729    0.0397    0.8245 O   0  0  0  0  0  0  0  0  0  0  0  0
   -0.9473   -0.2336   -0.4093 C   0  0  0  0  0  0  0  0  0  0  0  0
   -2.3987    0.2388   -0.3072 C   0  0  0  0  0  0  0  0  0  0  0  0
   -3.1501   -0.7075    0.4603 O   0  0  0  0  0  0  0  0  0  0  0  0
   -4.4567   -0.2526    0.8028 C   0  0  0  0  0  0  0  0  0  0  0  0
   -5.4044   -0.3094   -0.3820 C   0  0  0  0  0  0  0  0  0  2  0  0
    6.5068    0.4052   -0.6394 H   0  0  0  0  0  0  0  0  0  0  0  0
    5.9306   -0.2812    0.8985 H   0  0  0  0  0  0  0  0  0  0  0  0
    5.6779   -1.1695   -0.5991 H   0  0  0  0  0  0  0  0  0  0  0  0
    4.3995    1.5267    0.0999 H   0  0  0  0  0  0  0  0  0  0  0  0
    4.1429    0.6253   -1.4201 H   0  0  0  0  0  0  0  0  0  0  0  0
    2.0681    1.3500    0.5617 H   0  0  0  0  0  0  0  0  0  0  0  0
    1.8133    0.4103   -0.9173 H   0  0  0  0  0  0  0  0  0  0  0  0
    1.0425   -1.5534    0.5133 H   0  0  0  0  0  0  0  0  0  0  0  0
    1.3212   -0.5785    1.9398 H   0  0  0  0  0  0  0  0  0  0  0  0
   -0.9153   -1.3090   -0.6166 H   0  0  0  0  0  0  0  0  0  0  0  0
   -0.4466    0.3142   -1.2133 H   0  0  0  0  0  0  0  0  0  0  0  0
   -2.8283    0.2960   -1.3120 H   0  0  0  0  0  0  0  0  0  0  0  0
   -2.4416    1.2231    0.1723 H   0  0  0  0  0  0  0  0  0  0  0  0
   -4.8294   -0.9215    1.5855 H   0  0  0  0  0  0  0  0  0  0  0  0
   -4.4134    0.7553    1.2305 H   0  0  0  0  0  0  0  0  0  0  0  0
   -5.1181    0.4104   -1.1546 H   0  0  0  0  0  0  0  0  0  0  0  0
   -6.4273   -0.0817   -0.0679 H   0  0  0  0  0  0  0  0  0  0  0  0
   -5.3876   -1.3022   -0.8431 H   0  0  0  0  0  0  0  0  0  0  0  0
  1  2  1  0
  2  3  1  0
  3  4  1  0
  4  5  1  0
  5  6  1  0
  6  7  1  0
  7  8  1  0
  8  9  1  0
  9 10  1  0
 10 11  1  0
  1 12  1  0
  1 13  1  0
  1 14  1  0
  2 15  1  0
  2 16  1  0
  4 17  1  0
  4 18  1  0
  5 19  1  0
  5 20  1  0
  7 21  1  0
  7 22  1  0
  8 23  1  0
  8 24  1  0
 10 25  1  0
 10 26  1  0
 11 27  1  0
 11 28  1  0
 11 29  1  0
M  END
>  <anchor_atom_maps>  (33) 
1,2

>  <distance_A>  (33) 
11.109455157997493

>  <Rg_A>  (33) 
3.5940030737808017

>  <energy_kcal_mol>  (33) 
48.59863554442349

>  <ensemble>  (33) 
ETKDGv3 unweighted sampling; not a thermodynamic population

$$$$
Flexible PEG synthetic attachment-point proxy 33
     RDKit          3D

 29 28  0  0  0  0  0  0  0  0999 V2000
   -3.9619   -1.1516    0.8094 C   0  0  0  0  0  0  0  0  0  1  0  0
   -3.4445    0.0697    1.5485 C   0  0  0  0  0  0  0  0  0  0  0  0
   -3.4561    1.2489    0.7471 O   0  0  0  0  0  0  0  0  0  0  0  0
   -2.5468    1.2645   -0.3581 C   0  0  0  0  0  0  0  0  0  0  0  0
   -1.0742    1.2920    0.0613 C   0  0  0  0  0  0  0  0  0  0  0  0
   -0.6133   -0.0441    0.2929 O   0  0  0  0  0  0  0  0  0  0  0  0
    0.7303   -0.0958    0.7746 C   0  0  0  0  0  0  0  0  0  0  0  0
    1.7542    0.0080   -0.3550 C   0  0  0  0  0  0  0  0  0  0  0  0
    3.0672   -0.0969    0.1943 O   0  0  0  0  0  0  0  0  0  0  0  0
    4.0978   -0.0074   -0.7874 C   0  0  0  0  0  0  0  0  0  0  0  0
    4.3025   -1.3322   -1.5001 C   0  0  0  0  0  0  0  0  0  2  0  0
   -4.1009   -1.9878    1.5011 H   0  0  0  0  0  0  0  0  0  0  0  0
   -4.9165   -0.9333    0.3201 H   0  0  0  0  0  0  0  0  0  0  0  0
   -3.2629   -1.4730    0.0317 H   0  0  0  0  0  0  0  0  0  0  0  0
   -2.4528   -0.1061    1.9746 H   0  0  0  0  0  0  0  0  0  0  0  0
   -4.1118    0.2689    2.3942 H   0  0  0  0  0  0  0  0  0  0  0  0
   -2.7613    0.4334   -1.0369 H   0  0  0  0  0  0  0  0  0  0  0  0
   -2.7654    2.1915   -0.8990 H   0  0  0  0  0  0  0  0  0  0  0  0
   -0.9501    1.8888    0.9716 H   0  0  0  0  0  0  0  0  0  0  0  0
   -0.4829    1.7284   -0.7496 H   0  0  0  0  0  0  0  0  0  0  0  0
    0.9036    0.6687    1.5417 H   0  0  0  0  0  0  0  0  0  0  0  0
    0.8575   -1.0613    1.2777 H   0  0  0  0  0  0  0  0  0  0  0  0
    1.5726   -0.7893   -1.0834 H   0  0  0  0  0  0  0  0  0  0  0  0
    1.6521    0.9662   -0.8754 H   0  0  0  0  0  0  0  0  0  0  0  0
    5.0194    0.2539   -0.2568 H   0  0  0  0  0  0  0  0  0  0  0  0
    3.8892    0.8006   -1.4976 H   0  0  0  0  0  0  0  0  0  0  0  0
    3.4286   -1.6012   -2.1005 H   0  0  0  0  0  0  0  0  0  0  0  0
    4.4563   -2.1394   -0.7766 H   0  0  0  0  0  0  0  0  0  0  0  0
    5.1703   -1.2821   -2.1642 H   0  0  0  0  0  0  0  0  0  0  0  0
  1  2  1  0
  2  3  1  0
  3  4  1  0
  4  5  1  0
  5  6  1  0
  6  7  1  0
  7  8  1  0
  8  9  1  0
  9 10  1  0
 10 11  1  0
  1 12  1  0
  1 13  1  0
  1 14  1  0
  2 15  1  0
  2 16  1  0
  4 17  1  0
  4 18  1  0
  5 19  1  0
  5 20  1  0
  7 21  1  0
  7 22  1  0
  8 23  1  0
  8 24  1  0
 10 25  1  0
 10 26  1  0
 11 27  1  0
 11 28  1  0
 11 29  1  0
M  END
>  <anchor_atom_maps>  (34) 
1,2

>  <distance_A>  (34) 
8.58296722990846

>  <Rg_A>  (34) 
3.226761645295158

>  <energy_kcal_mol>  (34) 
49.70695304464414

>  <ensemble>  (34) 
ETKDGv3 unweighted sampling; not a thermodynamic population

$$$$
Flexible PEG synthetic attachment-point proxy 34
     RDKit          3D

 29 28  0  0  0  0  0  0  0  0999 V2000
    4.2335    1.7268   -0.3781 C   0  0  0  0  0  0  0  0  0  1  0  0
    3.6602    0.6316    0.5001 C   0  0  0  0  0  0  0  0  0  0  0  0
    3.1516   -0.3968   -0.3433 O   0  0  0  0  0  0  0  0  0  0  0  0
    2.6252   -1.5184    0.3743 C   0  0  0  0  0  0  0  0  0  0  0  0
    1.2142   -1.2703    0.9156 C   0  0  0  0  0  0  0  0  0  0  0  0
    0.2893   -1.1866   -0.1727 O   0  0  0  0  0  0  0  0  0  0  0  0
   -1.0322   -0.8907    0.2750 C   0  0  0  0  0  0  0  0  0  0  0  0
   -1.9787   -0.8743   -0.9234 C   0  0  0  0  0  0  0  0  0  0  0  0
   -3.3248   -0.6003   -0.5325 O   0  0  0  0  0  0  0  0  0  0  0  0
   -3.5975    0.7951   -0.4271 C   0  0  0  0  0  0  0  0  0  0  0  0
   -5.0459    0.9674   -0.0131 C   0  0  0  0  0  0  0  0  0  2  0  0
    5.0287    1.3312   -1.0185 H   0  0  0  0  0  0  0  0  0  0  0  0
    3.4622    2.1323   -1.0413 H   0  0  0  0  0  0  0  0  0  0  0  0
    4.6408    2.5404    0.2286 H   0  0  0  0  0  0  0  0  0  0  0  0
    4.4469    0.2268    1.1460 H   0  0  0  0  0  0  0  0  0  0  0  0
    2.8614    1.0444    1.1232 H   0  0  0  0  0  0  0  0  0  0  0  0
    2.5954   -2.3510   -0.3367 H   0  0  0  0  0  0  0  0  0  0  0  0
    3.3095   -1.7936    1.1847 H   0  0  0  0  0  0  0  0  0  0  0  0
    1.1726   -0.3434    1.4954 H   0  0  0  0  0  0  0  0  0  0  0  0
    0.9226   -2.1084    1.5584 H   0  0  0  0  0  0  0  0  0  0  0  0
   -1.0376    0.0804    0.7815 H   0  0  0  0  0  0  0  0  0  0  0  0
   -1.3651   -1.6455    0.9975 H   0  0  0  0  0  0  0  0  0  0  0  0
   -1.6378   -0.1704   -1.6926 H   0  0  0  0  0  0  0  0  0  0  0  0
   -1.9700   -1.8642   -1.3937 H   0  0  0  0  0  0  0  0  0  0  0  0
   -2.9440    1.2545    0.3210 H   0  0  0  0  0  0  0  0  0  0  0  0
   -3.4301    1.2783   -1.3958 H   0  0  0  0  0  0  0  0  0  0  0  0
   -5.2334    0.4752    0.9469 H   0  0  0  0  0  0  0  0  0  0  0  0
   -5.7143    0.5027   -0.7455 H   0  0  0  0  0  0  0  0  0  0  0  0
   -5.3026    2.0266    0.0770 H   0  0  0  0  0  0  0  0  0  0  0  0
  1  2  1  0
  2  3  1  0
  3  4  1  0
  4  5  1  0
  5  6  1  0
  6  7  1  0
  7  8  1  0
  8  9  1  0
  9 10  1  0
 10 11  1  0
  1 12  1  0
  1 13  1  0
  1 14  1  0
  2 15  1  0
  2 16  1  0
  4 17  1  0
  4 18  1  0
  5 19  1  0
  5 20  1  0
  7 21  1  0
  7 22  1  0
  8 23  1  0
  8 24  1  0
 10 25  1  0
 10 26  1  0
 11 27  1  0
 11 28  1  0
 11 29  1  0
M  END
>  <anchor_atom_maps>  (35) 
1,2

>  <distance_A>  (35) 
9.317528653356415

>  <Rg_A>  (35) 
3.3377955675391964

>  <energy_kcal_mol>  (35) 
48.792987134718565

>  <ensemble>  (35) 
ETKDGv3 unweighted sampling; not a thermodynamic population

$$$$
Flexible PEG synthetic attachment-point proxy 35
     RDKit          3D

 29 28  0  0  0  0  0  0  0  0999 V2000
    4.8621   -0.7584   -0.8101 C   0  0  0  0  0  0  0  0  0  1  0  0
    4.6129    0.4745    0.0402 C   0  0  0  0  0  0  0  0  0  0  0  0
    3.2445    0.8687   -0.0127 O   0  0  0  0  0  0  0  0  0  0  0  0
    2.4145    0.1500    0.9061 C   0  0  0  0  0  0  0  0  0  0  0  0
    0.9564    0.5622    0.6991 C   0  0  0  0  0  0  0  0  0  0  0  0
    0.4412   -0.0908   -0.4670 O   0  0  0  0  0  0  0  0  0  0  0  0
   -0.8608    0.3640   -0.8350 C   0  0  0  0  0  0  0  0  0  0  0  0
   -1.9600   -0.2918   -0.0016 C   0  0  0  0  0  0  0  0  0  0  0  0
   -3.2338    0.1704   -0.4505 O   0  0  0  0  0  0  0  0  0  0  0  0
   -4.3007   -0.4452    0.2672 C   0  0  0  0  0  0  0  0  0  0  0  0
   -5.6119    0.1000   -0.2625 C   0  0  0  0  0  0  0  0  0  2  0  0
    4.4978   -0.6021   -1.8307 H   0  0  0  0  0  0  0  0  0  0  0  0
    4.3353   -1.6308   -0.4125 H   0  0  0  0  0  0  0  0  0  0  0  0
    5.9303   -0.9910   -0.8478 H   0  0  0  0  0  0  0  0  0  0  0  0
    5.2000    1.3060   -0.3633 H   0  0  0  0  0  0  0  0  0  0  0  0
    4.9346    0.3180    1.0760 H   0  0  0  0  0  0  0  0  0  0  0  0
    2.7252    0.4087    1.9241 H   0  0  0  0  0  0  0  0  0  0  0  0
    2.5249   -0.9278    0.7505 H   0  0  0  0  0  0  0  0  0  0  0  0
    0.3677    0.2499    1.5670 H   0  0  0  0  0  0  0  0  0  0  0  0
    0.8864    1.6486    0.5745 H   0  0  0  0  0  0  0  0  0  0  0  0
   -1.0119    0.0998   -1.8880 H   0  0  0  0  0  0  0  0  0  0  0  0
   -0.9239    1.4580   -0.7877 H   0  0  0  0  0  0  0  0  0  0  0  0
   -1.8368   -0.0447    1.0584 H   0  0  0  0  0  0  0  0  0  0  0  0
   -1.8966   -1.3820   -0.1007 H   0  0  0  0  0  0  0  0  0  0  0  0
   -4.2075   -0.2189    1.3350 H   0  0  0  0  0  0  0  0  0  0  0  0
   -4.2643   -1.5308    0.1250 H   0  0  0  0  0  0  0  0  0  0  0  0
   -5.6543    1.1875   -0.1414 H   0  0  0  0  0  0  0  0  0  0  0  0
   -5.7102   -0.1052   -1.3337 H   0  0  0  0  0  0  0  0  0  0  0  0
   -6.4609   -0.3471    0.2621 H   0  0  0  0  0  0  0  0  0  0  0  0
  1  2  1  0
  2  3  1  0
  3  4  1  0
  4  5  1  0
  5  6  1  0
  6  7  1  0
  7  8  1  0
  8  9  1  0
  9 10  1  0
 10 11  1  0
  1 12  1  0
  1 13  1  0
  1 14  1  0
  2 15  1  0
  2 16  1  0
  4 17  1  0
  4 18  1  0
  5 19  1  0
  5 20  1  0
  7 21  1  0
  7 22  1  0
  8 23  1  0
  8 24  1  0
 10 25  1  0
 10 26  1  0
 11 27  1  0
 11 28  1  0
 11 29  1  0
M  END
>  <anchor_atom_maps>  (36) 
1,2

>  <distance_A>  (36) 
10.52335584691349

>  <Rg_A>  (36) 
3.525829273146377

>  <energy_kcal_mol>  (36) 
48.64497898473708

>  <ensemble>  (36) 
ETKDGv3 unweighted sampling; not a thermodynamic population

$$$$
Flexible PEG synthetic attachment-point proxy 36
     RDKit          3D

 29 28  0  0  0  0  0  0  0  0999 V2000
   -5.6740   -0.0168   -0.1746 C   0  0  0  0  0  0  0  0  0  1  0  0
   -4.2898    0.0021    0.4440 C   0  0  0  0  0  0  0  0  0  0  0  0
   -3.5443    1.0569   -0.1592 O   0  0  0  0  0  0  0  0  0  0  0  0
   -2.2234    1.1792    0.3685 C   0  0  0  0  0  0  0  0  0  0  0  0
   -1.2481    0.2086   -0.2948 C   0  0  0  0  0  0  0  0  0  0  0  0
    0.0579    0.4079    0.2476 O   0  0  0  0  0  0  0  0  0  0  0  0
    1.0142   -0.4591   -0.3629 C   0  0  0  0  0  0  0  0  0  0  0  0
    2.3902   -0.2034    0.2433 C   0  0  0  0  0  0  0  0  0  0  0  0
    3.3391   -1.0816   -0.3607 O   0  0  0  0  0  0  0  0  0  0  0  0
    4.6526   -0.9450    0.1779 C   0  0  0  0  0  0  0  0  0  0  0  0
    5.3769    0.2496   -0.4168 C   0  0  0  0  0  0  0  0  0  2  0  0
   -6.1785    0.9427   -0.0204 H   0  0  0  0  0  0  0  0  0  0  0  0
   -5.6105   -0.1734   -1.2565 H   0  0  0  0  0  0  0  0  0  0  0  0
   -6.2856   -0.8114    0.2619 H   0  0  0  0  0  0  0  0  0  0  0  0
   -3.7968   -0.9593    0.2701 H   0  0  0  0  0  0  0  0  0  0  0  0
   -4.3695    0.1754    1.5228 H   0  0  0  0  0  0  0  0  0  0  0  0
   -2.2217    1.0630    1.4592 H   0  0  0  0  0  0  0  0  0  0  0  0
   -1.8881    2.2044    0.1736 H   0  0  0  0  0  0  0  0  0  0  0  0
   -1.5605   -0.8270   -0.1231 H   0  0  0  0  0  0  0  0  0  0  0  0
   -1.2375    0.3796   -1.3779 H   0  0  0  0  0  0  0  0  0  0  0  0
    0.7270   -1.5055   -0.2044 H   0  0  0  0  0  0  0  0  0  0  0  0
    1.0470   -0.2811   -1.4445 H   0  0  0  0  0  0  0  0  0  0  0  0
    2.3539   -0.3749    1.3257 H   0  0  0  0  0  0  0  0  0  0  0  0
    2.6723    0.8422    0.0795 H   0  0  0  0  0  0  0  0  0  0  0  0
    5.1996   -1.8561   -0.0859 H   0  0  0  0  0  0  0  0  0  0  0  0
    4.6201   -0.8888    1.2718 H   0  0  0  0  0  0  0  0  0  0  0  0
    5.3528    0.2098   -1.5106 H   0  0  0  0  0  0  0  0  0  0  0  0
    6.4194    0.2713   -0.0862 H   0  0  0  0  0  0  0  0  0  0  0  0
    4.9052    1.1906   -0.1188 H   0  0  0  0  0  0  0  0  0  0  0  0
  1  2  1  0
  2  3  1  0
  3  4  1  0
  4  5  1  0
  5  6  1  0
  6  7  1  0
  7  8  1  0
  8  9  1  0
  9 10  1  0
 10 11  1  0
  1 12  1  0
  1 13  1  0
  1 14  1  0
  2 15  1  0
  2 16  1  0
  4 17  1  0
  4 18  1  0
  5 19  1  0
  5 20  1  0
  7 21  1  0
  7 22  1  0
  8 23  1  0
  8 24  1  0
 10 25  1  0
 10 26  1  0
 11 27  1  0
 11 28  1  0
 11 29  1  0
M  END
>  <anchor_atom_maps>  (37) 
1,2

>  <distance_A>  (37) 
11.056688756836408

>  <Rg_A>  (37) 
3.6711699430528864

>  <energy_kcal_mol>  (37) 
46.21234518385115

>  <ensemble>  (37) 
ETKDGv3 unweighted sampling; not a thermodynamic population

$$$$
Flexible PEG synthetic attachment-point proxy 37
     RDKit          3D

 29 28  0  0  0  0  0  0  0  0999 V2000
   -5.1437    1.3929    0.2008 C   0  0  0  0  0  0  0  0  0  1  0  0
   -4.4376    0.0594    0.0579 C   0  0  0  0  0  0  0  0  0  0  0  0
   -3.0824    0.3041   -0.3077 O   0  0  0  0  0  0  0  0  0  0  0  0
   -2.3509   -0.9150   -0.4779 C   0  0  0  0  0  0  0  0  0  0  0  0
   -0.8863   -0.5916   -0.7743 C   0  0  0  0  0  0  0  0  0  0  0  0
   -0.2313   -0.2064    0.4403 O   0  0  0  0  0  0  0  0  0  0  0  0
    1.0940    0.2819    0.2323 C   0  0  0  0  0  0  0  0  0  0  0  0
    2.1072   -0.8512    0.0574 C   0  0  0  0  0  0  0  0  0  0  0  0
    3.4329   -0.3644   -0.1537 O   0  0  0  0  0  0  0  0  0  0  0  0
    4.0945   -0.0007    1.0559 C   0  0  0  0  0  0  0  0  0  0  0  0
    5.5019    0.4467    0.7119 C   0  0  0  0  0  0  0  0  0  2  0  0
   -4.6533    2.0094    0.9614 H   0  0  0  0  0  0  0  0  0  0  0  0
   -6.1910    1.2518    0.4821 H   0  0  0  0  0  0  0  0  0  0  0  0
   -5.1024    1.9536   -0.7389 H   0  0  0  0  0  0  0  0  0  0  0  0
   -4.9275   -0.5407   -0.7166 H   0  0  0  0  0  0  0  0  0  0  0  0
   -4.4722   -0.4833    1.0089 H   0  0  0  0  0  0  0  0  0  0  0  0
   -2.4293   -1.5178    0.4339 H   0  0  0  0  0  0  0  0  0  0  0  0
   -2.7831   -1.4631   -1.3221 H   0  0  0  0  0  0  0  0  0  0  0  0
   -0.3948   -1.4842   -1.1728 H   0  0  0  0  0  0  0  0  0  0  0  0
   -0.8217    0.2246   -1.5024 H   0  0  0  0  0  0  0  0  0  0  0  0
    1.3529    0.8705    1.1181 H   0  0  0  0  0  0  0  0  0  0  0  0
    1.1297    0.9794   -0.6132 H   0  0  0  0  0  0  0  0  0  0  0  0
    2.0735   -1.5469    0.9046 H   0  0  0  0  0  0  0  0  0  0  0  0
    1.8463   -1.4407   -0.8273 H   0  0  0  0  0  0  0  0  0  0  0  0
    3.5611    0.8171    1.5497 H   0  0  0  0  0  0  0  0  0  0  0  0
    4.1354   -0.8630    1.7301 H   0  0  0  0  0  0  0  0  0  0  0  0
    5.4783    1.2993    0.0252 H   0  0  0  0  0  0  0  0  0  0  0  0
    6.0487   -0.3555    0.2053 H   0  0  0  0  0  0  0  0  0  0  0  0
    6.0512    0.7340    1.6128 H   0  0  0  0  0  0  0  0  0  0  0  0
  1  2  1  0
  2  3  1  0
  3  4  1  0
  4  5  1  0
  5  6  1  0
  6  7  1  0
  7  8  1  0
  8  9  1  0
  9 10  1  0
 10 11  1  0
  1 12  1  0
  1 13  1  0
  1 14  1  0
  2 15  1  0
  2 16  1  0
  4 17  1  0
  4 18  1  0
  5 19  1  0
  5 20  1  0
  7 21  1  0
  7 22  1  0
  8 23  1  0
  8 24  1  0
 10 25  1  0
 10 26  1  0
 11 27  1  0
 11 28  1  0
 11 29  1  0
M  END
>  <anchor_atom_maps>  (38) 
1,2

>  <distance_A>  (38) 
10.699791415273596

>  <Rg_A>  (38) 
3.5372760186779084

>  <energy_kcal_mol>  (38) 
48.24083415893381

>  <ensemble>  (38) 
ETKDGv3 unweighted sampling; not a thermodynamic population

$$$$
Flexible PEG synthetic attachment-point proxy 38
     RDKit          3D

 29 28  0  0  0  0  0  0  0  0999 V2000
    5.1885    0.8058   -0.4651 C   0  0  0  0  0  0  0  0  0  1  0  0
    3.9111    0.7725   -1.2851 C   0  0  0  0  0  0  0  0  0  0  0  0
    2.9302   -0.0854   -0.7075 O   0  0  0  0  0  0  0  0  0  0  0  0
    2.2985    0.4708    0.4517 C   0  0  0  0  0  0  0  0  0  0  0  0
    1.0898   -0.3869    0.8246 C   0  0  0  0  0  0  0  0  0  0  0  0
   -0.0005   -0.0736   -0.0481 O   0  0  0  0  0  0  0  0  0  0  0  0
   -1.1145   -0.9467    0.1565 C   0  0  0  0  0  0  0  0  0  0  0  0
   -2.2855   -0.4997   -0.7238 C   0  0  0  0  0  0  0  0  0  0  0  0
   -2.8868    0.7079   -0.2415 O   0  0  0  0  0  0  0  0  0  0  0  0
   -3.8589    0.5134    0.7813 C   0  0  0  0  0  0  0  0  0  0  0  0
   -5.2233    0.2342    0.1762 C   0  0  0  0  0  0  0  0  0  2  0  0
    5.5483   -0.2094   -0.2688 H   0  0  0  0  0  0  0  0  0  0  0  0
    5.0250    1.2839    0.5054 H   0  0  0  0  0  0  0  0  0  0  0  0
    5.9691    1.3631   -0.9911 H   0  0  0  0  0  0  0  0  0  0  0  0
    4.1388    0.3693   -2.2774 H   0  0  0  0  0  0  0  0  0  0  0  0
    3.5040    1.7795   -1.4297 H   0  0  0  0  0  0  0  0  0  0  0  0
    1.9826    1.4997    0.2465 H   0  0  0  0  0  0  0  0  0  0  0  0
    3.0153    0.4598    1.2785 H   0  0  0  0  0  0  0  0  0  0  0  0
    0.7829   -0.1620    1.8517 H   0  0  0  0  0  0  0  0  0  0  0  0
    1.3365   -1.4511    0.7368 H   0  0  0  0  0  0  0  0  0  0  0  0
   -0.8161   -1.9618   -0.1274 H   0  0  0  0  0  0  0  0  0  0  0  0
   -1.3927   -0.9324    1.2151 H   0  0  0  0  0  0  0  0  0  0  0  0
   -1.9201   -0.2836   -1.7333 H   0  0  0  0  0  0  0  0  0  0  0  0
   -3.0355   -1.2939   -0.7983 H   0  0  0  0  0  0  0  0  0  0  0  0
   -3.9101    1.4435    1.3566 H   0  0  0  0  0  0  0  0  0  0  0  0
   -3.5632   -0.2840    1.4709 H   0  0  0  0  0  0  0  0  0  0  0  0
   -5.9856    0.1650    0.9577 H   0  0  0  0  0  0  0  0  0  0  0  0
   -5.2234   -0.7014   -0.3908 H   0  0  0  0  0  0  0  0  0  0  0  0
   -5.5043    1.0300   -0.5215 H   0  0  0  0  0  0  0  0  0  0  0  0
  1  2  1  0
  2  3  1  0
  3  4  1  0
  4  5  1  0
  5  6  1  0
  6  7  1  0
  7  8  1  0
  8  9  1  0
  9 10  1  0
 10 11  1  0
  1 12  1  0
  1 13  1  0
  1 14  1  0
  2 15  1  0
  2 16  1  0
  4 17  1  0
  4 18  1  0
  5 19  1  0
  5 20  1  0
  7 21  1  0
  7 22  1  0
  8 23  1  0
  8 24  1  0
 10 25  1  0
 10 26  1  0
 11 27  1  0
 11 28  1  0
 11 29  1  0
M  END
>  <anchor_atom_maps>  (39) 
1,2

>  <distance_A>  (39) 
10.447204310574651

>  <Rg_A>  (39) 
3.3850291163432673

>  <energy_kcal_mol>  (39) 
52.1753491239297

>  <ensemble>  (39) 
ETKDGv3 unweighted sampling; not a thermodynamic population

$$$$
Flexible PEG synthetic attachment-point proxy 39
     RDKit          3D

 29 28  0  0  0  0  0  0  0  0999 V2000
   -5.4947   -0.0530    0.7112 C   0  0  0  0  0  0  0  0  0  1  0  0
   -4.2435    0.0809   -0.1345 C   0  0  0  0  0  0  0  0  0  0  0  0
   -3.3653    1.0023    0.5079 O   0  0  0  0  0  0  0  0  0  0  0  0
   -2.1544    1.2160   -0.2175 C   0  0  0  0  0  0  0  0  0  0  0  0
   -1.1113    0.1412    0.0821 C   0  0  0  0  0  0  0  0  0  0  0  0
    0.0866    0.4316   -0.6388 O   0  0  0  0  0  0  0  0  0  0  0  0
    1.1090   -0.5263   -0.3639 C   0  0  0  0  0  0  0  0  0  0  0  0
    2.3521   -0.1898   -1.1855 C   0  0  0  0  0  0  0  0  0  0  0  0
    3.4005   -1.1297   -0.9496 O   0  0  0  0  0  0  0  0  0  0  0  0
    4.2306   -0.8046    0.1635 C   0  0  0  0  0  0  0  0  0  0  0  0
    5.3327    0.1545   -0.2503 C   0  0  0  0  0  0  0  0  0  2  0  0
   -6.2022   -0.7503    0.2538 H   0  0  0  0  0  0  0  0  0  0  0  0
   -5.9844    0.9190    0.8322 H   0  0  0  0  0  0  0  0  0  0  0  0
   -5.2446   -0.4110    1.7154 H   0  0  0  0  0  0  0  0  0  0  0  0
   -4.5082    0.4550   -1.1295 H   0  0  0  0  0  0  0  0  0  0  0  0
   -3.7614   -0.8964   -0.2347 H   0  0  0  0  0  0  0  0  0  0  0  0
   -1.7566    2.1895    0.0914 H   0  0  0  0  0  0  0  0  0  0  0  0
   -2.3471    1.2959   -1.2944 H   0  0  0  0  0  0  0  0  0  0  0  0
   -0.9073    0.1161    1.1593 H   0  0  0  0  0  0  0  0  0  0  0  0
   -1.4831   -0.8466   -0.2104 H   0  0  0  0  0  0  0  0  0  0  0  0
    1.3436   -0.5171    0.7063 H   0  0  0  0  0  0  0  0  0  0  0  0
    0.7605   -1.5341   -0.6196 H   0  0  0  0  0  0  0  0  0  0  0  0
    2.0972   -0.2429   -2.2500 H   0  0  0  0  0  0  0  0  0  0  0  0
    2.6799    0.8399   -1.0025 H   0  0  0  0  0  0  0  0  0  0  0  0
    4.6852   -1.7393    0.5075 H   0  0  0  0  0  0  0  0  0  0  0  0
    3.6438   -0.3991    0.9945 H   0  0  0  0  0  0  0  0  0  0  0  0
    5.9022   -0.2546   -1.0913 H   0  0  0  0  0  0  0  0  0  0  0  0
    4.9231    1.1140   -0.5797 H   0  0  0  0  0  0  0  0  0  0  0  0
    6.0171    0.3387    0.5828 H   0  0  0  0  0  0  0  0  0  0  0  0
  1  2  1  0
  2  3  1  0
  3  4  1  0
  4  5  1  0
  5  6  1  0
  6  7  1  0
  7  8  1  0
  8  9  1  0
  9 10  1  0
 10 11  1  0
  1 12  1  0
  1 13  1  0
  1 14  1  0
  2 15  1  0
  2 16  1  0
  4 17  1  0
  4 18  1  0
  5 19  1  0
  5 20  1  0
  7 21  1  0
  7 22  1  0
  8 23  1  0
  8 24  1  0
 10 25  1  0
 10 26  1  0
 11 27  1  0
 11 28  1  0
 11 29  1  0
M  END
>  <anchor_atom_maps>  (40) 
1,2

>  <distance_A>  (40) 
10.872012901626249

>  <Rg_A>  (40) 
3.596588210518428

>  <energy_kcal_mol>  (40) 
47.92134130535135

>  <ensemble>  (40) 
ETKDGv3 unweighted sampling; not a thermodynamic population

$$$$
Flexible PEG synthetic attachment-point proxy 40
     RDKit          3D

 29 28  0  0  0  0  0  0  0  0999 V2000
    4.9997    0.7738   -0.4280 C   0  0  0  0  0  0  0  0  0  1  0  0
    3.6312    0.6718   -1.0775 C   0  0  0  0  0  0  0  0  0  0  0  0
    2.6101    1.2230   -0.2502 O   0  0  0  0  0  0  0  0  0  0  0  0
    2.2309    0.3727    0.8357 C   0  0  0  0  0  0  0  0  0  0  0  0
    1.0246    0.9775    1.5620 C   0  0  0  0  0  0  0  0  0  0  0  0
   -0.1663    0.9834    0.7671 O   0  0  0  0  0  0  0  0  0  0  0  0
   -0.8113   -0.2861    0.7011 C   0  0  0  0  0  0  0  0  0  0  0  0
   -2.0901   -0.1569   -0.1207 C   0  0  0  0  0  0  0  0  0  0  0  0
   -2.7368   -1.4285   -0.1837 O   0  0  0  0  0  0  0  0  0  0  0  0
   -3.9170   -1.4170   -0.9845 C   0  0  0  0  0  0  0  0  0  0  0  0
   -5.1004   -0.8444   -0.2250 C   0  0  0  0  0  0  0  0  0  2  0  0
    5.7819    0.4662   -1.1282 H   0  0  0  0  0  0  0  0  0  0  0  0
    5.1978    1.8005   -0.1035 H   0  0  0  0  0  0  0  0  0  0  0  0
    5.0676    0.1364    0.4586 H   0  0  0  0  0  0  0  0  0  0  0  0
    3.3934   -0.3636   -1.3459 H   0  0  0  0  0  0  0  0  0  0  0  0
    3.6364    1.2547   -2.0045 H   0  0  0  0  0  0  0  0  0  0  0  0
    3.0648    0.2989    1.5407 H   0  0  0  0  0  0  0  0  0  0  0  0
    1.9973   -0.6247    0.4520 H   0  0  0  0  0  0  0  0  0  0  0  0
    1.2388    2.0250    1.7997 H   0  0  0  0  0  0  0  0  0  0  0  0
    0.8362    0.4522    2.5052 H   0  0  0  0  0  0  0  0  0  0  0  0
   -1.0556   -0.6377    1.7105 H   0  0  0  0  0  0  0  0  0  0  0  0
   -0.1562   -1.0311    0.2376 H   0  0  0  0  0  0  0  0  0  0  0  0
   -1.8453    0.1924   -1.1309 H   0  0  0  0  0  0  0  0  0  0  0  0
   -2.7475    0.5874    0.3413 H   0  0  0  0  0  0  0  0  0  0  0  0
   -3.7450   -0.8773   -1.9225 H   0  0  0  0  0  0  0  0  0  0  0  0
   -4.1345   -2.4586   -1.2428 H   0  0  0  0  0  0  0  0  0  0  0  0
   -5.2257   -1.3545    0.7356 H   0  0  0  0  0  0  0  0  0  0  0  0
   -6.0205   -0.9540   -0.8066 H   0  0  0  0  0  0  0  0  0  0  0  0
   -4.9588    0.2185   -0.0086 H   0  0  0  0  0  0  0  0  0  0  0  0
  1  2  1  0
  2  3  1  0
  3  4  1  0
  4  5  1  0
  5  6  1  0
  6  7  1  0
  7  8  1  0
  8  9  1  0
  9 10  1  0
 10 11  1  0
  1 12  1  0
  1 13  1  0
  1 14  1  0
  2 15  1  0
  2 16  1  0
  4 17  1  0
  4 18  1  0
  5 19  1  0
  5 20  1  0
  7 21  1  0
  7 22  1  0
  8 23  1  0
  8 24  1  0
 10 25  1  0
 10 26  1  0
 11 27  1  0
 11 28  1  0
 11 29  1  0
M  END
>  <anchor_atom_maps>  (41) 
1,2

>  <distance_A>  (41) 
10.230998700648751

>  <Rg_A>  (41) 
3.3702249824557247

>  <energy_kcal_mol>  (41) 
49.82436704598544

>  <ensemble>  (41) 
ETKDGv3 unweighted sampling; not a thermodynamic population

$$$$
Flexible PEG synthetic attachment-point proxy 41
     RDKit          3D

 29 28  0  0  0  0  0  0  0  0999 V2000
    4.3926    1.4653    0.5530 C   0  0  0  0  0  0  0  0  0  1  0  0
    2.9463    1.3547    1.0012 C   0  0  0  0  0  0  0  0  0  0  0  0
    2.4234    0.0447    0.7889 O   0  0  0  0  0  0  0  0  0  0  0  0
    2.0990   -0.2208   -0.5814 C   0  0  0  0  0  0  0  0  0  0  0  0
    1.3630   -1.5597   -0.6820 C   0  0  0  0  0  0  0  0  0  0  0  0
   -0.0491   -1.4442   -0.4744 O   0  0  0  0  0  0  0  0  0  0  0  0
   -0.4027   -1.1246    0.8764 C   0  0  0  0  0  0  0  0  0  0  0  0
   -1.9205   -1.2186    1.0347 C   0  0  0  0  0  0  0  0  0  0  0  0
   -2.5391   -0.0722    0.4383 O   0  0  0  0  0  0  0  0  0  0  0  0
   -3.9604   -0.1568    0.4856 C   0  0  0  0  0  0  0  0  0  0  0  0
   -4.5362    1.0949   -0.1460 C   0  0  0  0  0  0  0  0  0  2  0  0
    4.8126    2.4326    0.8438 H   0  0  0  0  0  0  0  0  0  0  0  0
    4.9969    0.6680    0.9976 H   0  0  0  0  0  0  0  0  0  0  0  0
    4.4806    1.3697   -0.5333 H   0  0  0  0  0  0  0  0  0  0  0  0
    2.3173    2.1051    0.5093 H   0  0  0  0  0  0  0  0  0  0  0  0
    2.8951    1.5440    2.0785 H   0  0  0  0  0  0  0  0  0  0  0  0
    1.4755    0.5863   -0.9815 H   0  0  0  0  0  0  0  0  0  0  0  0
    3.0317   -0.2862   -1.1499 H   0  0  0  0  0  0  0  0  0  0  0  0
    1.4802   -1.9457   -1.6999 H   0  0  0  0  0  0  0  0  0  0  0  0
    1.7750   -2.3031    0.0100 H   0  0  0  0  0  0  0  0  0  0  0  0
    0.0774   -1.8412    1.5513 H   0  0  0  0  0  0  0  0  0  0  0  0
   -0.0746   -0.1077    1.1105 H   0  0  0  0  0  0  0  0  0  0  0  0
   -2.1767   -1.2353    2.0997 H   0  0  0  0  0  0  0  0  0  0  0  0
   -2.2956   -2.1273    0.5503 H   0  0  0  0  0  0  0  0  0  0  0  0
   -4.2974   -1.0407   -0.0670 H   0  0  0  0  0  0  0  0  0  0  0  0
   -4.2924   -0.2354    1.5266 H   0  0  0  0  0  0  0  0  0  0  0  0
   -5.6294    1.0721   -0.1313 H   0  0  0  0  0  0  0  0  0  0  0  0
   -4.1985    1.1939   -1.1830 H   0  0  0  0  0  0  0  0  0  0  0  0
   -4.1939    1.9882    0.3870 H   0  0  0  0  0  0  0  0  0  0  0  0
  1  2  1  0
  2  3  1  0
  3  4  1  0
  4  5  1  0
  5  6  1  0
  6  7  1  0
  7  8  1  0
  8  9  1  0
  9 10  1  0
 10 11  1  0
  1 12  1  0
  1 13  1  0
  1 14  1  0
  2 15  1  0
  2 16  1  0
  4 17  1  0
  4 18  1  0
  5 19  1  0
  5 20  1  0
  7 21  1  0
  7 22  1  0
  8 23  1  0
  8 24  1  0
 10 25  1  0
 10 26  1  0
 11 27  1  0
 11 28  1  0
 11 29  1  0
M  END
>  <anchor_atom_maps>  (42) 
1,2

>  <distance_A>  (42) 
8.963737650732376

>  <Rg_A>  (42) 
3.118628850592293

>  <energy_kcal_mol>  (42) 
47.9396594062067

>  <ensemble>  (42) 
ETKDGv3 unweighted sampling; not a thermodynamic population

$$$$
Flexible PEG synthetic attachment-point proxy 42
     RDKit          3D

 29 28  0  0  0  0  0  0  0  0999 V2000
    5.1482    0.7822    0.6421 C   0  0  0  0  0  0  0  0  0  1  0  0
    4.0006    0.5760   -0.3273 C   0  0  0  0  0  0  0  0  0  0  0  0
    3.1888   -0.4899    0.1610 O   0  0  0  0  0  0  0  0  0  0  0  0
    2.0945   -0.7989   -0.7029 C   0  0  0  0  0  0  0  0  0  0  0  0
    0.9121    0.1496   -0.4943 C   0  0  0  0  0  0  0  0  0  0  0  0
   -0.1956   -0.2174   -1.3146 O   0  0  0  0  0  0  0  0  0  0  0  0
   -1.0758   -1.1757   -0.7148 C   0  0  0  0  0  0  0  0  0  0  0  0
   -2.0994   -0.5150    0.2153 C   0  0  0  0  0  0  0  0  0  0  0  0
   -3.0488    0.2173   -0.5654 O   0  0  0  0  0  0  0  0  0  0  0  0
   -3.9542    0.9922    0.2160 C   0  0  0  0  0  0  0  0  0  0  0  0
   -5.0329    0.1313    0.8487 C   0  0  0  0  0  0  0  0  0  2  0  0
    5.7405   -0.1337    0.7390 H   0  0  0  0  0  0  0  0  0  0  0  0
    5.8022    1.5917    0.3060 H   0  0  0  0  0  0  0  0  0  0  0  0
    4.7702    1.0245    1.6408 H   0  0  0  0  0  0  0  0  0  0  0  0
    3.4137    1.4966   -0.4013 H   0  0  0  0  0  0  0  0  0  0  0  0
    4.3943    0.3191   -1.3168 H   0  0  0  0  0  0  0  0  0  0  0  0
    2.4117   -0.8113   -1.7528 H   0  0  0  0  0  0  0  0  0  0  0  0
    1.7861   -1.8235   -0.4705 H   0  0  0  0  0  0  0  0  0  0  0  0
    0.6362    0.2044    0.5648 H   0  0  0  0  0  0  0  0  0  0  0  0
    1.2012    1.1641   -0.7867 H   0  0  0  0  0  0  0  0  0  0  0  0
   -1.6012   -1.6716   -1.5379 H   0  0  0  0  0  0  0  0  0  0  0  0
   -0.4994   -1.9348   -0.1757 H   0  0  0  0  0  0  0  0  0  0  0  0
   -2.6242   -1.2956    0.7745 H   0  0  0  0  0  0  0  0  0  0  0  0
   -1.6054    0.1656    0.9157 H   0  0  0  0  0  0  0  0  0  0  0  0
   -3.4129    1.5724    0.9717 H   0  0  0  0  0  0  0  0  0  0  0  0
   -4.4277    1.7073   -0.4648 H   0  0  0  0  0  0  0  0  0  0  0  0
   -4.6133   -0.5419    1.6022 H   0  0  0  0  0  0  0  0  0  0  0  0
   -5.7883    0.7560    1.3343 H   0  0  0  0  0  0  0  0  0  0  0  0
   -5.5210   -0.4933    0.0937 H   0  0  0  0  0  0  0  0  0  0  0  0
  1  2  1  0
  2  3  1  0
  3  4  1  0
  4  5  1  0
  5  6  1  0
  6  7  1  0
  7  8  1  0
  8  9  1  0
  9 10  1  0
 10 11  1  0
  1 12  1  0
  1 13  1  0
  1 14  1  0
  2 15  1  0
  2 16  1  0
  4 17  1  0
  4 18  1  0
  5 19  1  0
  5 20  1  0
  7 21  1  0
  7 22  1  0
  8 23  1  0
  8 24  1  0
 10 25  1  0
 10 26  1  0
 11 27  1  0
 11 28  1  0
 11 29  1  0
M  END
>  <anchor_atom_maps>  (43) 
1,2

>  <distance_A>  (43) 
10.203893600010474

>  <Rg_A>  (43) 
3.3920772866477917

>  <energy_kcal_mol>  (43) 
51.527765395698964

>  <ensemble>  (43) 
ETKDGv3 unweighted sampling; not a thermodynamic population

$$$$
Flexible PEG synthetic attachment-point proxy 43
     RDKit          3D

 29 28  0  0  0  0  0  0  0  0999 V2000
   -4.4539   -0.6500   -1.2315 C   0  0  0  0  0  0  0  0  0  1  0  0
   -3.8553    0.7431   -1.3080 C   0  0  0  0  0  0  0  0  0  0  0  0
   -2.4921    0.7407   -0.8918 O   0  0  0  0  0  0  0  0  0  0  0  0
   -2.3377    0.8306    0.5295 C   0  0  0  0  0  0  0  0  0  0  0  0
   -0.8560    0.6973    0.8773 C   0  0  0  0  0  0  0  0  0  0  0  0
   -0.4770   -0.6823    0.8083 O   0  0  0  0  0  0  0  0  0  0  0  0
    0.9352   -0.8720    0.8818 C   0  0  0  0  0  0  0  0  0  0  0  0
    1.5841   -0.7825   -0.5013 C   0  0  0  0  0  0  0  0  0  0  0  0
    2.9946   -1.0003   -0.4403 O   0  0  0  0  0  0  0  0  0  0  0  0
    3.7260    0.1799   -0.1180 C   0  0  0  0  0  0  0  0  0  0  0  0
    5.2012   -0.1683   -0.0828 C   0  0  0  0  0  0  0  0  0  2  0  0
   -5.4648   -0.6586   -1.6494 H   0  0  0  0  0  0  0  0  0  0  0  0
   -3.8363   -1.3651   -1.7847 H   0  0  0  0  0  0  0  0  0  0  0  0
   -4.5072   -1.0055   -0.1984 H   0  0  0  0  0  0  0  0  0  0  0  0
   -3.8696    1.0768   -2.3508 H   0  0  0  0  0  0  0  0  0  0  0  0
   -4.4407    1.4631   -0.7250 H   0  0  0  0  0  0  0  0  0  0  0  0
   -2.9131    0.0412    1.0230 H   0  0  0  0  0  0  0  0  0  0  0  0
   -2.7030    1.8111    0.8533 H   0  0  0  0  0  0  0  0  0  0  0  0
   -0.6851    1.0441    1.9020 H   0  0  0  0  0  0  0  0  0  0  0  0
   -0.2518    1.2923    0.1844 H   0  0  0  0  0  0  0  0  0  0  0  0
    1.1125   -1.8742    1.2883 H   0  0  0  0  0  0  0  0  0  0  0  0
    1.3840   -0.1722    1.5957 H   0  0  0  0  0  0  0  0  0  0  0  0
    1.1591   -1.5664   -1.1387 H   0  0  0  0  0  0  0  0  0  0  0  0
    1.3591    0.1661   -1.0018 H   0  0  0  0  0  0  0  0  0  0  0  0
    3.5451    0.9458   -0.8801 H   0  0  0  0  0  0  0  0  0  0  0  0
    3.4154    0.5652    0.8580 H   0  0  0  0  0  0  0  0  0  0  0  0
    5.8042    0.7117    0.1576 H   0  0  0  0  0  0  0  0  0  0  0  0
    5.5268   -0.5665   -1.0495 H   0  0  0  0  0  0  0  0  0  0  0  0
    5.3961   -0.9452    0.6639 H   0  0  0  0  0  0  0  0  0  0  0  0
  1  2  1  0
  2  3  1  0
  3  4  1  0
  4  5  1  0
  5  6  1  0
  6  7  1  0
  7  8  1  0
  8  9  1  0
  9 10  1  0
 10 11  1  0
  1 12  1  0
  1 13  1  0
  1 14  1  0
  2 15  1  0
  2 16  1  0
  4 17  1  0
  4 18  1  0
  5 19  1  0
  5 20  1  0
  7 21  1  0
  7 22  1  0
  8 23  1  0
  8 24  1  0
 10 25  1  0
 10 26  1  0
 11 27  1  0
 11 28  1  0
 11 29  1  0
M  END
>  <anchor_atom_maps>  (44) 
1,2

>  <distance_A>  (44) 
9.735123261685226

>  <Rg_A>  (44) 
3.2580697152867706

>  <energy_kcal_mol>  (44) 
49.86536884370034

>  <ensemble>  (44) 
ETKDGv3 unweighted sampling; not a thermodynamic population

$$$$
Flexible PEG synthetic attachment-point proxy 44
     RDKit          3D

 29 28  0  0  0  0  0  0  0  0999 V2000
   -4.2661   -0.4926    0.9698 C   0  0  0  0  0  0  0  0  0  1  0  0
   -3.6635    0.4066   -0.0914 C   0  0  0  0  0  0  0  0  0  0  0  0
   -2.3987    0.8663    0.3783 O   0  0  0  0  0  0  0  0  0  0  0  0
   -1.7133    1.6970   -0.5678 C   0  0  0  0  0  0  0  0  0  0  0  0
   -0.9227    0.8739   -1.5923 C   0  0  0  0  0  0  0  0  0  0  0  0
    0.3637    0.4553   -1.1249 O   0  0  0  0  0  0  0  0  0  0  0  0
    0.3069   -0.4628   -0.0268 C   0  0  0  0  0  0  0  0  0  0  0  0
    1.7018   -1.0407    0.2194 C   0  0  0  0  0  0  0  0  0  0  0  0
    2.5222   -0.0596    0.8636 O   0  0  0  0  0  0  0  0  0  0  0  0
    3.8635   -0.4947    1.0670 C   0  0  0  0  0  0  0  0  0  0  0  0
    4.7040   -0.2886   -0.1805 C   0  0  0  0  0  0  0  0  0  2  0  0
   -3.6087   -1.3451    1.1706 H   0  0  0  0  0  0  0  0  0  0  0  0
   -4.3826    0.0493    1.9142 H   0  0  0  0  0  0  0  0  0  0  0  0
   -5.2440   -0.8672    0.6547 H   0  0  0  0  0  0  0  0  0  0  0  0
   -3.5449   -0.1529   -1.0244 H   0  0  0  0  0  0  0  0  0  0  0  0
   -4.3227    1.2633   -0.2688 H   0  0  0  0  0  0  0  0  0  0  0  0
   -1.0276    2.3312    0.0036 H   0  0  0  0  0  0  0  0  0  0  0  0
   -2.4361    2.3486   -1.0720 H   0  0  0  0  0  0  0  0  0  0  0  0
   -0.7274    1.5052   -2.4655 H   0  0  0  0  0  0  0  0  0  0  0  0
   -1.4763   -0.0053   -1.9366 H   0  0  0  0  0  0  0  0  0  0  0  0
   -0.0341    0.0632    0.8698 H   0  0  0  0  0  0  0  0  0  0  0  0
   -0.3837   -1.2766   -0.2732 H   0  0  0  0  0  0  0  0  0  0  0  0
    1.6224   -1.9118    0.8788 H   0  0  0  0  0  0  0  0  0  0  0  0
    2.1535   -1.3399   -0.7316 H   0  0  0  0  0  0  0  0  0  0  0  0
    4.2773    0.1162    1.8760 H   0  0  0  0  0  0  0  0  0  0  0  0
    3.8895   -1.5388    1.3987 H   0  0  0  0  0  0  0  0  0  0  0  0
    4.6329    0.7481   -0.5256 H   0  0  0  0  0  0  0  0  0  0  0  0
    5.7535   -0.5237    0.0189 H   0  0  0  0  0  0  0  0  0  0  0  0
    4.3611   -0.9239   -1.0023 H   0  0  0  0  0  0  0  0  0  0  0  0
  1  2  1  0
  2  3  1  0
  3  4  1  0
  4  5  1  0
  5  6  1  0
  6  7  1  0
  7  8  1  0
  8  9  1  0
  9 10  1  0
 10 11  1  0
  1 12  1  0
  1 13  1  0
  1 14  1  0
  2 15  1  0
  2 16  1  0
  4 17  1  0
  4 18  1  0
  5 19  1  0
  5 20  1  0
  7 21  1  0
  7 22  1  0
  8 23  1  0
  8 24  1  0
 10 25  1  0
 10 26  1  0
 11 27  1  0
 11 28  1  0
 11 29  1  0
M  END
>  <anchor_atom_maps>  (45) 
1,2

>  <distance_A>  (45) 
9.045839281707257

>  <Rg_A>  (45) 
3.090806038872564

>  <energy_kcal_mol>  (45) 
50.350092279722986

>  <ensemble>  (45) 
ETKDGv3 unweighted sampling; not a thermodynamic population

$$$$
Flexible PEG synthetic attachment-point proxy 45
     RDKit          3D

 29 28  0  0  0  0  0  0  0  0999 V2000
    5.5436    0.2922   -0.0079 C   0  0  0  0  0  0  0  0  0  1  0  0
    4.1500    0.2235    0.5855 C   0  0  0  0  0  0  0  0  0  0  0  0
    3.3798   -0.6945   -0.1873 O   0  0  0  0  0  0  0  0  0  0  0  0
    2.0553   -0.8759    0.3144 C   0  0  0  0  0  0  0  0  0  0  0  0
    1.1086    0.2412   -0.1297 C   0  0  0  0  0  0  0  0  0  0  0  0
   -0.2158    0.0568    0.3702 O   0  0  0  0  0  0  0  0  0  0  0  0
   -0.9807   -0.8823   -0.3950 C   0  0  0  0  0  0  0  0  0  0  0  0
   -2.4298   -0.8699    0.0921 C   0  0  0  0  0  0  0  0  0  0  0  0
   -3.0925    0.2935   -0.4155 O   0  0  0  0  0  0  0  0  0  0  0  0
   -4.4239    0.4006    0.0806 C   0  0  0  0  0  0  0  0  0  0  0  0
   -5.0586    1.6417   -0.5144 C   0  0  0  0  0  0  0  0  0  2  0  0
    6.0137   -0.6968   -0.0040 H   0  0  0  0  0  0  0  0  0  0  0  0
    5.5024    0.6214   -1.0515 H   0  0  0  0  0  0  0  0  0  0  0  0
    6.1743    0.9851    0.5562 H   0  0  0  0  0  0  0  0  0  0  0  0
    4.2071   -0.1219    1.6235 H   0  0  0  0  0  0  0  0  0  0  0  0
    3.6928    1.2173    0.5617 H   0  0  0  0  0  0  0  0  0  0  0  0
    2.0587   -0.9813    1.4062 H   0  0  0  0  0  0  0  0  0  0  0  0
    1.7002   -1.8333   -0.0798 H   0  0  0  0  0  0  0  0  0  0  0  0
    1.4617    1.1987    0.2660 H   0  0  0  0  0  0  0  0  0  0  0  0
    1.1073    0.3490   -1.2211 H   0  0  0  0  0  0  0  0  0  0  0  0
   -0.5610   -1.8821   -0.2487 H   0  0  0  0  0  0  0  0  0  0  0  0
   -0.9388   -0.6133   -1.4564 H   0  0  0  0  0  0  0  0  0  0  0  0
   -2.9505   -1.7570   -0.2845 H   0  0  0  0  0  0  0  0  0  0  0  0
   -2.4618   -0.8592    1.1874 H   0  0  0  0  0  0  0  0  0  0  0  0
   -4.9988   -0.4864   -0.2070 H   0  0  0  0  0  0  0  0  0  0  0  0
   -4.4066    0.4793    1.1732 H   0  0  0  0  0  0  0  0  0  0  0  0
   -6.0855    1.7637   -0.1588 H   0  0  0  0  0  0  0  0  0  0  0  0
   -5.0675    1.5838   -1.6079 H   0  0  0  0  0  0  0  0  0  0  0  0
   -4.4836    2.5346   -0.2475 H   0  0  0  0  0  0  0  0  0  0  0  0
  1  2  1  0
  2  3  1  0
  3  4  1  0
  4  5  1  0
  5  6  1  0
  6  7  1  0
  7  8  1  0
  8  9  1  0
  9 10  1  0
 10 11  1  0
  1 12  1  0
  1 13  1  0
  1 14  1  0
  2 15  1  0
  2 16  1  0
  4 17  1  0
  4 18  1  0
  5 19  1  0
  5 20  1  0
  7 21  1  0
  7 22  1  0
  8 23  1  0
  8 24  1  0
 10 25  1  0
 10 26  1  0
 11 27  1  0
 11 28  1  0
 11 29  1  0
M  END
>  <anchor_atom_maps>  (46) 
1,2

>  <distance_A>  (46) 
10.69974887926461

>  <Rg_A>  (46) 
3.5372791836364144

>  <energy_kcal_mol>  (46) 
48.240834260976506

>  <ensemble>  (46) 
ETKDGv3 unweighted sampling; not a thermodynamic population

$$$$
Flexible PEG synthetic attachment-point proxy 46
     RDKit          3D

 29 28  0  0  0  0  0  0  0  0999 V2000
    5.0558   -0.3902    0.4091 C   0  0  0  0  0  0  0  0  0  1  0  0
    3.8470    0.4722    0.1022 C   0  0  0  0  0  0  0  0  0  0  0  0
    2.9172    0.3351    1.1717 O   0  0  0  0  0  0  0  0  0  0  0  0
    1.7372    1.1307    1.0098 C   0  0  0  0  0  0  0  0  0  0  0  0
    0.7096    0.4816    0.0767 C   0  0  0  0  0  0  0  0  0  0  0  0
    0.1212   -0.6456    0.7265 O   0  0  0  0  0  0  0  0  0  0  0  0
   -0.6209   -1.5048   -0.1430 C   0  0  0  0  0  0  0  0  0  0  0  0
   -1.8610   -0.8581   -0.7686 C   0  0  0  0  0  0  0  0  0  0  0  0
   -2.7903   -0.4945    0.2541 O   0  0  0  0  0  0  0  0  0  0  0  0
   -3.9601    0.1167   -0.2817 C   0  0  0  0  0  0  0  0  0  0  0  0
   -4.8866    0.4662    0.8657 C   0  0  0  0  0  0  0  0  0  2  0  0
    5.5157   -0.0872    1.3556 H   0  0  0  0  0  0  0  0  0  0  0  0
    5.8022   -0.3132   -0.3865 H   0  0  0  0  0  0  0  0  0  0  0  0
    4.7627   -1.4396    0.5185 H   0  0  0  0  0  0  0  0  0  0  0  0
    4.1545    1.5196    0.0110 H   0  0  0  0  0  0  0  0  0  0  0  0
    3.3964    0.1479   -0.8404 H   0  0  0  0  0  0  0  0  0  0  0  0
    2.0117    2.1288    0.6499 H   0  0  0  0  0  0  0  0  0  0  0  0
    1.3000    1.2417    2.0078 H   0  0  0  0  0  0  0  0  0  0  0  0
    1.1753    0.1657   -0.8615 H   0  0  0  0  0  0  0  0  0  0  0  0
   -0.0780    1.2111   -0.1372 H   0  0  0  0  0  0  0  0  0  0  0  0
   -0.9338   -2.3581    0.4683 H   0  0  0  0  0  0  0  0  0  0  0  0
    0.0469   -1.8847   -0.9244 H   0  0  0  0  0  0  0  0  0  0  0  0
   -1.5894    0.0335   -1.3425 H   0  0  0  0  0  0  0  0  0  0  0  0
   -2.3376   -1.5781   -1.4436 H   0  0  0  0  0  0  0  0  0  0  0  0
   -4.4600   -0.5772   -0.9663 H   0  0  0  0  0  0  0  0  0  0  0  0
   -3.6856    1.0256   -0.8282 H   0  0  0  0  0  0  0  0  0  0  0  0
   -5.8012    0.9400    0.4984 H   0  0  0  0  0  0  0  0  0  0  0  0
   -5.1562   -0.4321    1.4309 H   0  0  0  0  0  0  0  0  0  0  0  0
   -4.3925    1.1471    1.5666 H   0  0  0  0  0  0  0  0  0  0  0  0
  1  2  1  0
  2  3  1  0
  3  4  1  0
  4  5  1  0
  5  6  1  0
  6  7  1  0
  7  8  1  0
  8  9  1  0
  9 10  1  0
 10 11  1  0
  1 12  1  0
  1 13  1  0
  1 14  1  0
  2 15  1  0
  2 16  1  0
  4 17  1  0
  4 18  1  0
  5 19  1  0
  5 20  1  0
  7 21  1  0
  7 22  1  0
  8 23  1  0
  8 24  1  0
 10 25  1  0
 10 26  1  0
 11 27  1  0
 11 28  1  0
 11 29  1  0
M  END
>  <anchor_atom_maps>  (47) 
1,2

>  <distance_A>  (47) 
9.989717142957213

>  <Rg_A>  (47) 
3.2593944686469096

>  <energy_kcal_mol>  (47) 
51.71119864083177

>  <ensemble>  (47) 
ETKDGv3 unweighted sampling; not a thermodynamic population

$$$$
Flexible PEG synthetic attachment-point proxy 47
     RDKit          3D

 29 28  0  0  0  0  0  0  0  0999 V2000
    4.3792    1.7334   -0.4696 C   0  0  0  0  0  0  0  0  0  1  0  0
    4.0797    0.2933   -0.1040 C   0  0  0  0  0  0  0  0  0  0  0  0
    2.7524   -0.0113   -0.5238 O   0  0  0  0  0  0  0  0  0  0  0  0
    2.4010   -1.3673   -0.2253 C   0  0  0  0  0  0  0  0  0  0  0  0
    0.9412   -1.6077   -0.6069 C   0  0  0  0  0  0  0  0  0  0  0  0
    0.0880   -1.0224    0.3836 O   0  0  0  0  0  0  0  0  0  0  0  0
   -1.2874   -1.1247    0.0193 C   0  0  0  0  0  0  0  0  0  0  0  0
   -2.1489   -0.5199    1.1261 C   0  0  0  0  0  0  0  0  0  0  0  0
   -3.5386   -0.6047    0.8083 O   0  0  0  0  0  0  0  0  0  0  0  0
   -4.0222    0.4919    0.0353 C   0  0  0  0  0  0  0  0  0  0  0  0
   -4.4123    1.6519    0.9342 C   0  0  0  0  0  0  0  0  0  2  0  0
    3.6662    2.4100    0.0130 H   0  0  0  0  0  0  0  0  0  0  0  0
    4.2814    1.8854   -1.5496 H   0  0  0  0  0  0  0  0  0  0  0  0
    5.3918    2.0111   -0.1642 H   0  0  0  0  0  0  0  0  0  0  0  0
    4.1650    0.1595    0.9799 H   0  0  0  0  0  0  0  0  0  0  0  0
    4.7891   -0.3739   -0.6058 H   0  0  0  0  0  0  0  0  0  0  0  0
    2.5499   -1.5557    0.8439 H   0  0  0  0  0  0  0  0  0  0  0  0
    3.0472   -2.0297   -0.8115 H   0  0  0  0  0  0  0  0  0  0  0  0
    0.7432   -2.6845   -0.6410 H   0  0  0  0  0  0  0  0  0  0  0  0
    0.7267   -1.1607   -1.5842 H   0  0  0  0  0  0  0  0  0  0  0  0
   -1.5615   -2.1761   -0.1289 H   0  0  0  0  0  0  0  0  0  0  0  0
   -1.4583   -0.6001   -0.9272 H   0  0  0  0  0  0  0  0  0  0  0  0
   -1.9885   -1.0882    2.0494 H   0  0  0  0  0  0  0  0  0  0  0  0
   -1.8442    0.5096    1.3464 H   0  0  0  0  0  0  0  0  0  0  0  0
   -3.2911    0.8031   -0.7183 H   0  0  0  0  0  0  0  0  0  0  0  0
   -4.9127    0.1408   -0.4962 H   0  0  0  0  0  0  0  0  0  0  0  0
   -5.1316    1.3253    1.6924 H   0  0  0  0  0  0  0  0  0  0  0  0
   -4.8596    2.4605    0.3488 H   0  0  0  0  0  0  0  0  0  0  0  0
   -3.5452    2.0511    1.4687 H   0  0  0  0  0  0  0  0  0  0  0  0
  1  2  1  0
  2  3  1  0
  3  4  1  0
  4  5  1  0
  5  6  1  0
  6  7  1  0
  7  8  1  0
  8  9  1  0
  9 10  1  0
 10 11  1  0
  1 12  1  0
  1 13  1  0
  1 14  1  0
  2 15  1  0
  2 16  1  0
  4 17  1  0
  4 18  1  0
  5 19  1  0
  5 20  1  0
  7 21  1  0
  7 22  1  0
  8 23  1  0
  8 24  1  0
 10 25  1  0
 10 26  1  0
 11 27  1  0
 11 28  1  0
 11 29  1  0
M  END
>  <anchor_atom_maps>  (48) 
1,2

>  <distance_A>  (48) 
8.903249847630693

>  <Rg_A>  (48) 
3.3707028091540536

>  <energy_kcal_mol>  (48) 
48.007791238892054

>  <ensemble>  (48) 
ETKDGv3 unweighted sampling; not a thermodynamic population

$$$$
Flexible PEG synthetic attachment-point proxy 48
     RDKit          3D

 29 28  0  0  0  0  0  0  0  0999 V2000
    4.4395   -1.0558   -0.1911 C   0  0  0  0  0  0  0  0  0  1  0  0
    2.9995   -1.4722    0.0509 C   0  0  0  0  0  0  0  0  0  0  0  0
    2.4287   -0.8322    1.1883 O   0  0  0  0  0  0  0  0  0  0  0  0
    2.2332    0.5792    1.0844 C   0  0  0  0  0  0  0  0  0  0  0  0
    1.3135    1.0230   -0.0614 C   0  0  0  0  0  0  0  0  0  0  0  0
    0.0809    0.3061   -0.1398 O   0  0  0  0  0  0  0  0  0  0  0  0
   -0.7587    0.4802    1.0059 C   0  0  0  0  0  0  0  0  0  0  0  0
   -2.1538   -0.0609    0.6941 C   0  0  0  0  0  0  0  0  0  0  0  0
   -2.8578    0.8880   -0.1163 O   0  0  0  0  0  0  0  0  0  0  0  0
   -4.1363    0.4219   -0.5395 C   0  0  0  0  0  0  0  0  0  0  0  0
   -4.0211   -0.4442   -1.7812 C   0  0  0  0  0  0  0  0  0  2  0  0
    5.0292   -1.1480    0.7265 H   0  0  0  0  0  0  0  0  0  0  0  0
    4.5018   -0.0123   -0.5145 H   0  0  0  0  0  0  0  0  0  0  0  0
    4.8935   -1.6771   -0.9687 H   0  0  0  0  0  0  0  0  0  0  0  0
    2.3830   -1.3135   -0.8389 H   0  0  0  0  0  0  0  0  0  0  0  0
    2.9780   -2.5477    0.2577 H   0  0  0  0  0  0  0  0  0  0  0  0
    1.7951    0.8919    2.0383 H   0  0  0  0  0  0  0  0  0  0  0  0
    3.2014    1.0860    1.0141 H   0  0  0  0  0  0  0  0  0  0  0  0
    1.1062    2.0968    0.0139 H   0  0  0  0  0  0  0  0  0  0  0  0
    1.8207    0.8698   -1.0193 H   0  0  0  0  0  0  0  0  0  0  0  0
   -0.3342   -0.0873    1.8398 H   0  0  0  0  0  0  0  0  0  0  0  0
   -0.8142    1.5428    1.2677 H   0  0  0  0  0  0  0  0  0  0  0  0
   -2.0766   -1.0194    0.1714 H   0  0  0  0  0  0  0  0  0  0  0  0
   -2.7104   -0.1942    1.6280 H   0  0  0  0  0  0  0  0  0  0  0  0
   -4.6476   -0.1081    0.2721 H   0  0  0  0  0  0  0  0  0  0  0  0
   -4.7344    1.3068   -0.7808 H   0  0  0  0  0  0  0  0  0  0  0  0
   -3.4742   -1.3686   -1.5740 H   0  0  0  0  0  0  0  0  0  0  0  0
   -3.4723    0.0829   -2.5685 H   0  0  0  0  0  0  0  0  0  0  0  0
   -5.0127   -0.7101   -2.1590 H   0  0  0  0  0  0  0  0  0  0  0  0
  1  2  1  0
  2  3  1  0
  3  4  1  0
  4  5  1  0
  5  6  1  0
  6  7  1  0
  7  8  1  0
  8  9  1  0
  9 10  1  0
 10 11  1  0
  1 12  1  0
  1 13  1  0
  1 14  1  0
  2 15  1  0
  2 16  1  0
  4 17  1  0
  4 18  1  0
  5 19  1  0
  5 20  1  0
  7 21  1  0
  7 22  1  0
  8 23  1  0
  8 24  1  0
 10 25  1  0
 10 26  1  0
 11 27  1  0
 11 28  1  0
 11 29  1  0
M  END
>  <anchor_atom_maps>  (49) 
1,2

>  <distance_A>  (49) 
8.630425459090041

>  <Rg_A>  (49) 
3.105392317433393

>  <energy_kcal_mol>  (49) 
52.49020416917182

>  <ensemble>  (49) 
ETKDGv3 unweighted sampling; not a thermodynamic population

$$$$
Flexible PEG synthetic attachment-point proxy 49
     RDKit          3D

 29 28  0  0  0  0  0  0  0  0999 V2000
    3.6957   -1.1065    1.2189 C   0  0  0  0  0  0  0  0  0  1  0  0
    3.8510    0.0497    0.2471 C   0  0  0  0  0  0  0  0  0  0  0  0
    2.7806    0.0829   -0.6925 O   0  0  0  0  0  0  0  0  0  0  0  0
    1.5996    0.7094   -0.1898 C   0  0  0  0  0  0  0  0  0  0  0  0
    0.5048    0.6966   -1.2622 C   0  0  0  0  0  0  0  0  0  0  0  0
    0.0880   -0.6009   -1.6884 O   0  0  0  0  0  0  0  0  0  0  0  0
   -0.4033   -1.4903   -0.6851 C   0  0  0  0  0  0  0  0  0  0  0  0
   -1.5960   -0.9663    0.1221 C   0  0  0  0  0  0  0  0  0  0  0  0
   -2.7056   -0.7313   -0.7460 O   0  0  0  0  0  0  0  0  0  0  0  0
   -3.8600   -0.2375   -0.0729 C   0  0  0  0  0  0  0  0  0  0  0  0
   -3.7673    1.2609    0.1537 C   0  0  0  0  0  0  0  0  0  2  0  0
    4.5772   -1.1911    1.8611 H   0  0  0  0  0  0  0  0  0  0  0  0
    2.8182   -0.9749    1.8587 H   0  0  0  0  0  0  0  0  0  0  0  0
    3.5597   -2.0487    0.6780 H   0  0  0  0  0  0  0  0  0  0  0  0
    4.7733   -0.0921   -0.3257 H   0  0  0  0  0  0  0  0  0  0  0  0
    3.9365    1.0064    0.7745 H   0  0  0  0  0  0  0  0  0  0  0  0
    1.8310    1.7488    0.0693 H   0  0  0  0  0  0  0  0  0  0  0  0
    1.2598    0.1943    0.7126 H   0  0  0  0  0  0  0  0  0  0  0  0
   -0.3677    1.2671   -0.9279 H   0  0  0  0  0  0  0  0  0  0  0  0
    0.8866    1.1964   -2.1595 H   0  0  0  0  0  0  0  0  0  0  0  0
   -0.7106   -2.3980   -1.2163 H   0  0  0  0  0  0  0  0  0  0  0  0
    0.4171   -1.7748   -0.0183 H   0  0  0  0  0  0  0  0  0  0  0  0
   -1.8797   -1.7193    0.8662 H   0  0  0  0  0  0  0  0  0  0  0  0
   -1.3306   -0.0440    0.6457 H   0  0  0  0  0  0  0  0  0  0  0  0
   -4.0222   -0.7749    0.8682 H   0  0  0  0  0  0  0  0  0  0  0  0
   -4.7188   -0.4441   -0.7200 H   0  0  0  0  0  0  0  0  0  0  0  0
   -4.7038    1.6468    0.5668 H   0  0  0  0  0  0  0  0  0  0  0  0
   -2.9593    1.5102    0.8478 H   0  0  0  0  0  0  0  0  0  0  0  0
   -3.5540    1.7803   -0.7863 H   0  0  0  0  0  0  0  0  0  0  0  0
  1  2  1  0
  2  3  1  0
  3  4  1  0
  4  5  1  0
  5  6  1  0
  6  7  1  0
  7  8  1  0
  8  9  1  0
  9 10  1  0
 10 11  1  0
  1 12  1  0
  1 13  1  0
  1 14  1  0
  2 15  1  0
  2 16  1  0
  4 17  1  0
  4 18  1  0
  5 19  1  0
  5 20  1  0
  7 21  1  0
  7 22  1  0
  8 23  1  0
  8 24  1  0
 10 25  1  0
 10 26  1  0
 11 27  1  0
 11 28  1  0
 11 29  1  0
M  END
>  <anchor_atom_maps>  (50) 
1,2

>  <distance_A>  (50) 
7.901642930007211

>  <Rg_A>  (50) 
2.9480161115325503

>  <energy_kcal_mol>  (50) 
54.80849400390836

>  <ensemble>  (50) 
ETKDGv3 unweighted sampling; not a thermodynamic population

$$$$
Flexible PEG synthetic attachment-point proxy 50
     RDKit          3D

 29 28  0  0  0  0  0  0  0  0999 V2000
   -4.5243   -1.4818    0.8400 C   0  0  0  0  0  0  0  0  0  1  0  0
   -4.4716    0.0351    0.8726 C   0  0  0  0  0  0  0  0  0  0  0  0
   -3.1260    0.5041    0.8870 O   0  0  0  0  0  0  0  0  0  0  0  0
   -2.5394    0.5747   -0.4172 C   0  0  0  0  0  0  0  0  0  0  0  0
   -1.0745    0.9950   -0.2902 C   0  0  0  0  0  0  0  0  0  0  0  0
   -0.2971   -0.1259    0.1482 O   0  0  0  0  0  0  0  0  0  0  0  0
    1.0531    0.2160    0.4610 C   0  0  0  0  0  0  0  0  0  0  0  0
    1.9283    0.3193   -0.7899 C   0  0  0  0  0  0  0  0  0  0  0  0
    3.2786    0.6639   -0.4789 O   0  0  0  0  0  0  0  0  0  0  0  0
    4.0596   -0.4540   -0.0624 C   0  0  0  0  0  0  0  0  0  0  0  0
    5.4774    0.0228    0.1862 C   0  0  0  0  0  0  0  0  0  2  0  0
   -5.5556   -1.8337    0.9366 H   0  0  0  0  0  0  0  0  0  0  0  0
   -4.1144   -1.8756   -0.0947 H   0  0  0  0  0  0  0  0  0  0  0  0
   -3.9281   -1.9054    1.6548 H   0  0  0  0  0  0  0  0  0  0  0  0
   -4.9408    0.3847    1.7982 H   0  0  0  0  0  0  0  0  0  0  0  0
   -5.0290    0.4730    0.0368 H   0  0  0  0  0  0  0  0  0  0  0  0
   -2.6080   -0.3982   -0.9138 H   0  0  0  0  0  0  0  0  0  0  0  0
   -3.0844    1.3251   -1.0000 H   0  0  0  0  0  0  0  0  0  0  0  0
   -0.7073    1.3185   -1.2688 H   0  0  0  0  0  0  0  0  0  0  0  0
   -0.9794    1.8139    0.4316 H   0  0  0  0  0  0  0  0  0  0  0  0
    1.4346   -0.5788    1.1097 H   0  0  0  0  0  0  0  0  0  0  0  0
    1.1000    1.1370    1.0546 H   0  0  0  0  0  0  0  0  0  0  0  0
    1.5447    1.1129   -1.4390 H   0  0  0  0  0  0  0  0  0  0  0  0
    1.8835   -0.6030   -1.3817 H   0  0  0  0  0  0  0  0  0  0  0  0
    3.6506   -0.8815    0.8580 H   0  0  0  0  0  0  0  0  0  0  0  0
    4.0594   -1.2193   -0.8462 H   0  0  0  0  0  0  0  0  0  0  0  0
    6.1168   -0.8046    0.5063 H   0  0  0  0  0  0  0  0  0  0  0  0
    5.4929    0.8003    0.9572 H   0  0  0  0  0  0  0  0  0  0  0  0
    5.9003    0.4656   -0.7216 H   0  0  0  0  0  0  0  0  0  0  0  0
  1  2  1  0
  2  3  1  0
  3  4  1  0
  4  5  1  0
  5  6  1  0
  6  7  1  0
  7  8  1  0
  8  9  1  0
  9 10  1  0
 10 11  1  0
  1 12  1  0
  1 13  1  0
  1 14  1  0
  2 15  1  0
  2 16  1  0
  4 17  1  0
  4 18  1  0
  5 19  1  0
  5 20  1  0
  7 21  1  0
  7 22  1  0
  8 23  1  0
  8 24  1  0
 10 25  1  0
 10 26  1  0
 11 27  1  0
 11 28  1  0
 11 29  1  0
M  END
>  <anchor_atom_maps>  (51) 
1,2

>  <distance_A>  (51) 
10.135379370440461

>  <Rg_A>  (51) 
3.4615785817410414

>  <energy_kcal_mol>  (51) 
49.76964124057429

>  <ensemble>  (51) 
ETKDGv3 unweighted sampling; not a thermodynamic population

$$$$
Flexible PEG synthetic attachment-point proxy 51
     RDKit          3D

 29 28  0  0  0  0  0  0  0  0999 V2000
    5.1005    0.9829   -0.5619 C   0  0  0  0  0  0  0  0  0  1  0  0
    4.3400   -0.3176   -0.7500 C   0  0  0  0  0  0  0  0  0  0  0  0
    2.9795   -0.0786   -1.1048 O   0  0  0  0  0  0  0  0  0  0  0  0
    2.1501    0.2202    0.0177 C   0  0  0  0  0  0  0  0  0  0  0  0
    0.7236    0.4748   -0.4668 C   0  0  0  0  0  0  0  0  0  0  0  0
   -0.1523    0.7368    0.6285 O   0  0  0  0  0  0  0  0  0  0  0  0
   -0.7584   -0.4373    1.1818 C   0  0  0  0  0  0  0  0  0  0  0  0
   -2.0130   -0.8537    0.4074 C   0  0  0  0  0  0  0  0  0  0  0  0
   -3.0709    0.0719    0.6754 O   0  0  0  0  0  0  0  0  0  0  0  0
   -4.2456   -0.2345   -0.0701 C   0  0  0  0  0  0  0  0  0  0  0  0
   -5.3153    0.7797    0.2826 C   0  0  0  0  0  0  0  0  0  2  0  0
    4.9850    1.6273   -1.4394 H   0  0  0  0  0  0  0  0  0  0  0  0
    4.7256    1.5433    0.2995 H   0  0  0  0  0  0  0  0  0  0  0  0
    6.1652    0.7870   -0.4045 H   0  0  0  0  0  0  0  0  0  0  0  0
    4.7910   -0.8733   -1.5787 H   0  0  0  0  0  0  0  0  0  0  0  0
    4.4042   -0.9511    0.1418 H   0  0  0  0  0  0  0  0  0  0  0  0
    2.1682   -0.6191    0.7217 H   0  0  0  0  0  0  0  0  0  0  0  0
    2.5160    1.1061    0.5478 H   0  0  0  0  0  0  0  0  0  0  0  0
    0.3643   -0.3540   -1.0876 H   0  0  0  0  0  0  0  0  0  0  0  0
    0.7214    1.3615   -1.1108 H   0  0  0  0  0  0  0  0  0  0  0  0
   -1.0328   -0.1894    2.2125 H   0  0  0  0  0  0  0  0  0  0  0  0
   -0.0338   -1.2581    1.2124 H   0  0  0  0  0  0  0  0  0  0  0  0
   -1.8190   -0.8743   -0.6697 H   0  0  0  0  0  0  0  0  0  0  0  0
   -2.3292   -1.8487    0.7393 H   0  0  0  0  0  0  0  0  0  0  0  0
   -4.5911   -1.2433    0.1812 H   0  0  0  0  0  0  0  0  0  0  0  0
   -4.0266   -0.1863   -1.1424 H   0  0  0  0  0  0  0  0  0  0  0  0
   -4.9757    1.7946    0.0510 H   0  0  0  0  0  0  0  0  0  0  0  0
   -5.5326    0.7536    1.3555 H   0  0  0  0  0  0  0  0  0  0  0  0
   -6.2382    0.5815   -0.2696 H   0  0  0  0  0  0  0  0  0  0  0  0
  1  2  1  0
  2  3  1  0
  3  4  1  0
  4  5  1  0
  5  6  1  0
  6  7  1  0
  7  8  1  0
  8  9  1  0
  9 10  1  0
 10 11  1  0
  1 12  1  0
  1 13  1  0
  1 14  1  0
  2 15  1  0
  2 16  1  0
  4 17  1  0
  4 18  1  0
  5 19  1  0
  5 20  1  0
  7 21  1  0
  7 22  1  0
  8 23  1  0
  8 24  1  0
 10 25  1  0
 10 26  1  0
 11 27  1  0
 11 28  1  0
 11 29  1  0
M  END
>  <anchor_atom_maps>  (52) 
1,2

>  <distance_A>  (52) 
10.451970014095288

>  <Rg_A>  (52) 
3.4553103058896673

>  <energy_kcal_mol>  (52) 
50.318110871919224

>  <ensemble>  (52) 
ETKDGv3 unweighted sampling; not a thermodynamic population

$$$$
Flexible PEG synthetic attachment-point proxy 52
     RDKit          3D

 29 28  0  0  0  0  0  0  0  0999 V2000
   -4.4414    2.0348   -0.1283 C   0  0  0  0  0  0  0  0  0  1  0  0
   -3.6229    0.8569   -0.6197 C   0  0  0  0  0  0  0  0  0  0  0  0
   -3.0902    0.1773    0.5148 O   0  0  0  0  0  0  0  0  0  0  0  0
   -2.3015   -0.9594    0.1621 C   0  0  0  0  0  0  0  0  0  0  0  0
   -0.8571   -0.5720   -0.1503 C   0  0  0  0  0  0  0  0  0  0  0  0
   -0.1123   -1.7481   -0.4660 O   0  0  0  0  0  0  0  0  0  0  0  0
    1.2663   -1.4805   -0.7255 C   0  0  0  0  0  0  0  0  0  0  0  0
    2.0889   -1.4130    0.5635 C   0  0  0  0  0  0  0  0  0  0  0  0
    3.4705   -1.1828    0.2861 O   0  0  0  0  0  0  0  0  0  0  0  0
    3.8147    0.1937    0.1449 C   0  0  0  0  0  0  0  0  0  0  0  0
    4.0993    0.8183    1.4993 C   0  0  0  0  0  0  0  0  0  2  0  0
   -5.2503    1.6957    0.5273 H   0  0  0  0  0  0  0  0  0  0  0  0
   -3.8194    2.7176    0.4598 H   0  0  0  0  0  0  0  0  0  0  0  0
   -4.8747    2.5861   -0.9675 H   0  0  0  0  0  0  0  0  0  0  0  0
   -4.2621    0.1755   -1.1918 H   0  0  0  0  0  0  0  0  0  0  0  0
   -2.8130    1.2145   -1.2630 H   0  0  0  0  0  0  0  0  0  0  0  0
   -2.3062   -1.6397    1.0214 H   0  0  0  0  0  0  0  0  0  0  0  0
   -2.7548   -1.5156   -0.6676 H   0  0  0  0  0  0  0  0  0  0  0  0
   -0.8228    0.1187   -0.9998 H   0  0  0  0  0  0  0  0  0  0  0  0
   -0.4231   -0.0571    0.7137 H   0  0  0  0  0  0  0  0  0  0  0  0
    1.6483   -2.3026   -1.3417 H   0  0  0  0  0  0  0  0  0  0  0  0
    1.3779   -0.5744   -1.3318 H   0  0  0  0  0  0  0  0  0  0  0  0
    1.6950   -0.6674    1.2614 H   0  0  0  0  0  0  0  0  0  0  0  0
    2.0135   -2.3775    1.0784 H   0  0  0  0  0  0  0  0  0  0  0  0
    3.0360    0.7473   -0.3902 H   0  0  0  0  0  0  0  0  0  0  0  0
    4.7245    0.2355   -0.4628 H   0  0  0  0  0  0  0  0  0  0  0  0
    3.2067    0.8216    2.1320 H   0  0  0  0  0  0  0  0  0  0  0  0
    4.4445    1.8497    1.3839 H   0  0  0  0  0  0  0  0  0  0  0  0
    4.8661    0.2468    2.0325 H   0  0  0  0  0  0  0  0  0  0  0  0
  1  2  1  0
  2  3  1  0
  3  4  1  0
  4  5  1  0
  5  6  1  0
  6  7  1  0
  7  8  1  0
  8  9  1  0
  9 10  1  0
 10 11  1  0
  1 12  1  0
  1 13  1  0
  1 14  1  0
  2 15  1  0
  2 16  1  0
  4 17  1  0
  4 18  1  0
  5 19  1  0
  5 20  1  0
  7 21  1  0
  7 22  1  0
  8 23  1  0
  8 24  1  0
 10 25  1  0
 10 26  1  0
 11 27  1  0
 11 28  1  0
 11 29  1  0
M  END
>  <anchor_atom_maps>  (53) 
1,2

>  <distance_A>  (53) 
8.779074397924898

>  <Rg_A>  (53) 
3.303930972135922

>  <energy_kcal_mol>  (53) 
49.74117256433017

>  <ensemble>  (53) 
ETKDGv3 unweighted sampling; not a thermodynamic population

$$$$
Flexible PEG synthetic attachment-point proxy 53
     RDKit          3D

 29 28  0  0  0  0  0  0  0  0999 V2000
    4.4493   -0.2242    1.2210 C   0  0  0  0  0  0  0  0  0  1  0  0
    4.4471    0.2974   -0.2048 C   0  0  0  0  0  0  0  0  0  0  0  0
    3.1195    0.4113   -0.7101 O   0  0  0  0  0  0  0  0  0  0  0  0
    2.6051   -0.8212   -1.2267 C   0  0  0  0  0  0  0  0  0  0  0  0
    1.1526   -0.6216   -1.6585 C   0  0  0  0  0  0  0  0  0  0  0  0
    0.3111   -0.5930   -0.4996 O   0  0  0  0  0  0  0  0  0  0  0  0
   -1.0485   -0.3349   -0.8464 C   0  0  0  0  0  0  0  0  0  0  0  0
   -1.8944   -0.2984    0.4210 C   0  0  0  0  0  0  0  0  0  0  0  0
   -3.2591   -0.0635    0.0735 O   0  0  0  0  0  0  0  0  0  0  0  0
   -4.0905   -0.0064    1.2303 C   0  0  0  0  0  0  0  0  0  0  0  0
   -5.5173    0.2418    0.7830 C   0  0  0  0  0  0  0  0  0  2  0  0
    5.4613   -0.2071    1.6360 H   0  0  0  0  0  0  0  0  0  0  0  0
    4.0761   -1.2512    1.2710 H   0  0  0  0  0  0  0  0  0  0  0  0
    3.7966    0.3850    1.8548 H   0  0  0  0  0  0  0  0  0  0  0  0
    5.0624   -0.3286   -0.8608 H   0  0  0  0  0  0  0  0  0  0  0  0
    4.8786    1.3037   -0.2131 H   0  0  0  0  0  0  0  0  0  0  0  0
    2.6642   -1.6026   -0.4627 H   0  0  0  0  0  0  0  0  0  0  0  0
    3.2070   -1.1089   -2.0954 H   0  0  0  0  0  0  0  0  0  0  0  0
    1.0465    0.3201   -2.2088 H   0  0  0  0  0  0  0  0  0  0  0  0
    0.8410   -1.4583   -2.2931 H   0  0  0  0  0  0  0  0  0  0  0  0
   -1.4188   -1.1174   -1.5194 H   0  0  0  0  0  0  0  0  0  0  0  0
   -1.1289    0.6241   -1.3722 H   0  0  0  0  0  0  0  0  0  0  0  0
   -1.5326    0.4955    1.0856 H   0  0  0  0  0  0  0  0  0  0  0  0
   -1.8026   -1.2508    0.9569 H   0  0  0  0  0  0  0  0  0  0  0  0
   -3.7588    0.8071    1.8848 H   0  0  0  0  0  0  0  0  0  0  0  0
   -4.0311   -0.9545    1.7761 H   0  0  0  0  0  0  0  0  0  0  0  0
   -5.5877    1.1793    0.2214 H   0  0  0  0  0  0  0  0  0  0  0  0
   -5.8561   -0.5563    0.1142 H   0  0  0  0  0  0  0  0  0  0  0  0
   -6.1922    0.2932    1.6419 H   0  0  0  0  0  0  0  0  0  0  0  0
  1  2  1  0
  2  3  1  0
  3  4  1  0
  4  5  1  0
  5  6  1  0
  6  7  1  0
  7  8  1  0
  8  9  1  0
  9 10  1  0
 10 11  1  0
  1 12  1  0
  1 13  1  0
  1 14  1  0
  2 15  1  0
  2 16  1  0
  4 17  1  0
  4 18  1  0
  5 19  1  0
  5 20  1  0
  7 21  1  0
  7 22  1  0
  8 23  1  0
  8 24  1  0
 10 25  1  0
 10 26  1  0
 11 27  1  0
 11 28  1  0
 11 29  1  0
M  END
>  <anchor_atom_maps>  (54) 
1,2

>  <distance_A>  (54) 
9.987069631869597

>  <Rg_A>  (54) 
3.501796886139306

>  <energy_kcal_mol>  (54) 
46.43492057906839

>  <ensemble>  (54) 
ETKDGv3 unweighted sampling; not a thermodynamic population

$$$$
Flexible PEG synthetic attachment-point proxy 54
     RDKit          3D

 29 28  0  0  0  0  0  0  0  0999 V2000
   -5.6596   -0.4333   -0.0569 C   0  0  0  0  0  0  0  0  0  1  0  0
   -4.2670   -0.1813   -0.6008 C   0  0  0  0  0  0  0  0  0  0  0  0
   -3.6152    0.7550    0.2541 O   0  0  0  0  0  0  0  0  0  0  0  0
   -2.2953    1.0825   -0.1803 C   0  0  0  0  0  0  0  0  0  0  0  0
   -1.2663    0.0532    0.2835 C   0  0  0  0  0  0  0  0  0  0  0  0
    0.0334    0.4579   -0.1484 O   0  0  0  0  0  0  0  0  0  0  0  0
    1.0369   -0.4600    0.2867 C   0  0  0  0  0  0  0  0  0  0  0  0
    2.4037    0.0186   -0.1918 C   0  0  0  0  0  0  0  0  0  0  0  0
    3.4009   -0.9091    0.2342 O   0  0  0  0  0  0  0  0  0  0  0  0
    4.7126   -0.5657   -0.2079 C   0  0  0  0  0  0  0  0  0  0  0  0
    5.3330    0.5068    0.6696 C   0  0  0  0  0  0  0  0  0  2  0  0
   -5.6094   -0.8284    0.9631 H   0  0  0  0  0  0  0  0  0  0  0  0
   -6.2300    0.5002   -0.0094 H   0  0  0  0  0  0  0  0  0  0  0  0
   -6.2009   -1.1461   -0.6853 H   0  0  0  0  0  0  0  0  0  0  0  0
   -4.3347    0.2282   -1.6146 H   0  0  0  0  0  0  0  0  0  0  0  0
   -3.7084   -1.1219   -0.6299 H   0  0  0  0  0  0  0  0  0  0  0  0
   -2.2602    1.2190   -1.2682 H   0  0  0  0  0  0  0  0  0  0  0  0
   -2.0410    2.0560    0.2545 H   0  0  0  0  0  0  0  0  0  0  0  0
   -1.2931   -0.0276    1.3767 H   0  0  0  0  0  0  0  0  0  0  0  0
   -1.4975   -0.9342   -0.1303 H   0  0  0  0  0  0  0  0  0  0  0  0
    0.8314   -1.4593   -0.1156 H   0  0  0  0  0  0  0  0  0  0  0  0
    1.0319   -0.5322    1.3810 H   0  0  0  0  0  0  0  0  0  0  0  0
    2.4048    0.0970   -1.2855 H   0  0  0  0  0  0  0  0  0  0  0  0
    2.6041    1.0155    0.2153 H   0  0  0  0  0  0  0  0  0  0  0  0
    5.3192   -1.4745   -0.1361 H   0  0  0  0  0  0  0  0  0  0  0  0
    4.7010   -0.2633   -1.2611 H   0  0  0  0  0  0  0  0  0  0  0  0
    4.8001    1.4574    0.5743 H   0  0  0  0  0  0  0  0  0  0  0  0
    5.2871    0.2165    1.7242 H   0  0  0  0  0  0  0  0  0  0  0  0
    6.3784    0.6730    0.3934 H   0  0  0  0  0  0  0  0  0  0  0  0
  1  2  1  0
  2  3  1  0
  3  4  1  0
  4  5  1  0
  5  6  1  0
  6  7  1  0
  7  8  1  0
  8  9  1  0
  9 10  1  0
 10 11  1  0
  1 12  1  0
  1 13  1  0
  1 14  1  0
  2 15  1  0
  2 16  1  0
  4 17  1  0
  4 18  1  0
  5 19  1  0
  5 20  1  0
  7 21  1  0
  7 22  1  0
  8 23  1  0
  8 24  1  0
 10 25  1  0
 10 26  1  0
 11 27  1  0
 11 28  1  0
 11 29  1  0
M  END
>  <anchor_atom_maps>  (55) 
1,2

>  <distance_A>  (55) 
11.056674341215103

>  <Rg_A>  (55) 
3.6711689408274317

>  <energy_kcal_mol>  (55) 
46.21234518865057

>  <ensemble>  (55) 
ETKDGv3 unweighted sampling; not a thermodynamic population

$$$$
Flexible PEG synthetic attachment-point proxy 55
     RDKit          3D

 29 28  0  0  0  0  0  0  0  0999 V2000
   -4.5831    0.9098   -0.1136 C   0  0  0  0  0  0  0  0  0  1  0  0
   -3.0921    1.1883   -0.1798 C   0  0  0  0  0  0  0  0  0  0  0  0
   -2.3457    0.2782    0.6259 O   0  0  0  0  0  0  0  0  0  0  0  0
   -2.2072   -1.0198    0.0349 C   0  0  0  0  0  0  0  0  0  0  0  0
   -1.2306   -1.8575    0.8649 C   0  0  0  0  0  0  0  0  0  0  0  0
    0.1390   -1.6545    0.4994 O   0  0  0  0  0  0  0  0  0  0  0  0
    0.6371   -0.3585    0.8520 C   0  0  0  0  0  0  0  0  0  0  0  0
    2.1462   -0.3152    0.6051 C   0  0  0  0  0  0  0  0  0  0  0  0
    2.3974   -0.2042   -0.8009 O   0  0  0  0  0  0  0  0  0  0  0  0
    3.7712   -0.3614   -1.1454 C   0  0  0  0  0  0  0  0  0  0  0  0
    4.5830    0.8775   -0.8118 C   0  0  0  0  0  0  0  0  0  2  0  0
   -5.1443    1.6946   -0.6292 H   0  0  0  0  0  0  0  0  0  0  0  0
   -4.8299   -0.0477   -0.5818 H   0  0  0  0  0  0  0  0  0  0  0  0
   -4.9205    0.8573    0.9266 H   0  0  0  0  0  0  0  0  0  0  0  0
   -2.9022    2.1906    0.2180 H   0  0  0  0  0  0  0  0  0  0  0  0
   -2.7289    1.1749   -1.2135 H   0  0  0  0  0  0  0  0  0  0  0  0
   -3.1865   -1.5080    0.0418 H   0  0  0  0  0  0  0  0  0  0  0  0
   -1.8462   -0.9253   -0.9952 H   0  0  0  0  0  0  0  0  0  0  0  0
   -1.4320   -2.9169    0.6749 H   0  0  0  0  0  0  0  0  0  0  0  0
   -1.3529   -1.6786    1.9392 H   0  0  0  0  0  0  0  0  0  0  0  0
    0.4378   -0.1746    1.9132 H   0  0  0  0  0  0  0  0  0  0  0  0
    0.1458    0.4023    0.2385 H   0  0  0  0  0  0  0  0  0  0  0  0
    2.5658    0.5612    1.1083 H   0  0  0  0  0  0  0  0  0  0  0  0
    2.6158   -1.2263    0.9926 H   0  0  0  0  0  0  0  0  0  0  0  0
    4.1895   -1.2532   -0.6656 H   0  0  0  0  0  0  0  0  0  0  0  0
    3.8089   -0.5271   -2.2272 H   0  0  0  0  0  0  0  0  0  0  0  0
    4.1176    1.7713   -1.2397 H   0  0  0  0  0  0  0  0  0  0  0  0
    4.6457    1.0323    0.2695 H   0  0  0  0  0  0  0  0  0  0  0  0
    5.6012    0.7868   -1.2014 H   0  0  0  0  0  0  0  0  0  0  0  0
  1  2  1  0
  2  3  1  0
  3  4  1  0
  4  5  1  0
  5  6  1  0
  6  7  1  0
  7  8  1  0
  8  9  1  0
  9 10  1  0
 10 11  1  0
  1 12  1  0
  1 13  1  0
  1 14  1  0
  2 15  1  0
  2 16  1  0
  4 17  1  0
  4 18  1  0
  5 19  1  0
  5 20  1  0
  7 21  1  0
  7 22  1  0
  8 23  1  0
  8 24  1  0
 10 25  1  0
 10 26  1  0
 11 27  1  0
 11 28  1  0
 11 29  1  0
M  END
>  <anchor_atom_maps>  (56) 
1,2

>  <distance_A>  (56) 
9.192690248328605

>  <Rg_A>  (56) 
3.1274316660385253

>  <energy_kcal_mol>  (56) 
49.441462479992175

>  <ensemble>  (56) 
ETKDGv3 unweighted sampling; not a thermodynamic population

$$$$
Flexible PEG synthetic attachment-point proxy 56
     RDKit          3D

 29 28  0  0  0  0  0  0  0  0999 V2000
    4.3903    0.5310   -0.2100 C   0  0  0  0  0  0  0  0  0  1  0  0
    3.4989    0.0226    0.9091 C   0  0  0  0  0  0  0  0  0  0  0  0
    2.5618   -0.9527    0.4614 O   0  0  0  0  0  0  0  0  0  0  0  0
    1.5491   -0.4894   -0.4323 C   0  0  0  0  0  0  0  0  0  0  0  0
    0.6592    0.6338    0.1170 C   0  0  0  0  0  0  0  0  0  0  0  0
    0.1480    0.4128    1.4294 O   0  0  0  0  0  0  0  0  0  0  0  0
   -0.6165   -0.7786    1.6291 C   0  0  0  0  0  0  0  0  0  0  0  0
   -1.8629   -0.9021    0.7460 C   0  0  0  0  0  0  0  0  0  0  0  0
   -2.7565    0.1802    1.0132 O   0  0  0  0  0  0  0  0  0  0  0  0
   -3.9489    0.1374    0.2345 C   0  0  0  0  0  0  0  0  0  0  0  0
   -3.7227    0.7111   -1.1529 C   0  0  0  0  0  0  0  0  0  2  0  0
    3.8229    1.1313   -0.9276 H   0  0  0  0  0  0  0  0  0  0  0  0
    4.8331   -0.3040   -0.7624 H   0  0  0  0  0  0  0  0  0  0  0  0
    5.1931    1.1559    0.1921 H   0  0  0  0  0  0  0  0  0  0  0  0
    4.1271   -0.4723    1.6576 H   0  0  0  0  0  0  0  0  0  0  0  0
    2.9928    0.8461    1.4219 H   0  0  0  0  0  0  0  0  0  0  0  0
    0.9277   -1.3623   -0.6583 H   0  0  0  0  0  0  0  0  0  0  0  0
    2.0015   -0.1858   -1.3823 H   0  0  0  0  0  0  0  0  0  0  0  0
   -0.1665    0.8379   -0.5732 H   0  0  0  0  0  0  0  0  0  0  0  0
    1.2401    1.5606    0.1705 H   0  0  0  0  0  0  0  0  0  0  0  0
    0.0295   -1.6537    1.5057 H   0  0  0  0  0  0  0  0  0  0  0  0
   -0.9302   -0.7582    2.6786 H   0  0  0  0  0  0  0  0  0  0  0  0
   -2.3686   -1.8471    0.9748 H   0  0  0  0  0  0  0  0  0  0  0  0
   -1.5862   -0.9032   -0.3116 H   0  0  0  0  0  0  0  0  0  0  0  0
   -4.6907    0.7527    0.7542 H   0  0  0  0  0  0  0  0  0  0  0  0
   -4.3460   -0.8827    0.1854 H   0  0  0  0  0  0  0  0  0  0  0  0
   -3.2774    1.7093   -1.0891 H   0  0  0  0  0  0  0  0  0  0  0  0
   -4.6672    0.7792   -1.7004 H   0  0  0  0  0  0  0  0  0  0  0  0
   -3.0349    0.0900   -1.7342 H   0  0  0  0  0  0  0  0  0  0  0  0
  1  2  1  0
  2  3  1  0
  3  4  1  0
  4  5  1  0
  5  6  1  0
  6  7  1  0
  7  8  1  0
  8  9  1  0
  9 10  1  0
 10 11  1  0
  1 12  1  0
  1 13  1  0
  1 14  1  0
  2 15  1  0
  2 16  1  0
  4 17  1  0
  4 18  1  0
  5 19  1  0
  5 20  1  0
  7 21  1  0
  7 22  1  0
  8 23  1  0
  8 24  1  0
 10 25  1  0
 10 26  1  0
 11 27  1  0
 11 28  1  0
 11 29  1  0
M  END
>  <anchor_atom_maps>  (57) 
1,2

>  <distance_A>  (57) 
8.16950815328824

>  <Rg_A>  (57) 
2.960395973706431

>  <energy_kcal_mol>  (57) 
54.90274288869376

>  <ensemble>  (57) 
ETKDGv3 unweighted sampling; not a thermodynamic population

$$$$
Flexible PEG synthetic attachment-point proxy 57
     RDKit          3D

 29 28  0  0  0  0  0  0  0  0999 V2000
   -5.8894   -0.1409   -0.2689 C   0  0  0  0  0  0  0  0  0  1  0  0
   -4.5699    0.1294   -0.9640 C   0  0  0  0  0  0  0  0  0  0  0  0
   -3.5217    0.0036   -0.0058 O   0  0  0  0  0  0  0  0  0  0  0  0
   -2.2433    0.2459   -0.5922 C   0  0  0  0  0  0  0  0  0  0  0  0
   -1.1621    0.0986    0.4724 C   0  0  0  0  0  0  0  0  0  0  0  0
    0.1169    0.3414   -0.1144 O   0  0  0  0  0  0  0  0  0  0  0  0
    1.1629    0.2136    0.8494 C   0  0  0  0  0  0  0  0  0  0  0  0
    2.5060    0.4801    0.1776 C   0  0  0  0  0  0  0  0  0  0  0  0
    3.5479    0.3551    1.1447 O   0  0  0  0  0  0  0  0  0  0  0  0
    4.8414    0.6417    0.6170 C   0  0  0  0  0  0  0  0  0  0  0  0
    5.4042   -0.5405   -0.1518 C   0  0  0  0  0  0  0  0  0  2  0  0
   -6.7245   -0.0548   -0.9696 H   0  0  0  0  0  0  0  0  0  0  0  0
   -6.0437    0.5653    0.5536 H   0  0  0  0  0  0  0  0  0  0  0  0
   -5.8964   -1.1450    0.1680 H   0  0  0  0  0  0  0  0  0  0  0  0
   -4.4205   -0.5937   -1.7733 H   0  0  0  0  0  0  0  0  0  0  0  0
   -4.5699    1.1422   -1.3818 H   0  0  0  0  0  0  0  0  0  0  0  0
   -2.2101    1.2560   -1.0178 H   0  0  0  0  0  0  0  0  0  0  0  0
   -2.0619   -0.4661   -1.4064 H   0  0  0  0  0  0  0  0  0  0  0  0
   -1.1951   -0.9116    0.8976 H   0  0  0  0  0  0  0  0  0  0  0  0
   -1.3435    0.8106    1.2865 H   0  0  0  0  0  0  0  0  0  0  0  0
    1.0091    0.9273    1.6678 H   0  0  0  0  0  0  0  0  0  0  0  0
    1.1569   -0.7952    1.2793 H   0  0  0  0  0  0  0  0  0  0  0  0
    2.6520   -0.2328   -0.6410 H   0  0  0  0  0  0  0  0  0  0  0  0
    2.5092    1.4889   -0.2522 H   0  0  0  0  0  0  0  0  0  0  0  0
    5.4936    0.8490    1.4719 H   0  0  0  0  0  0  0  0  0  0  0  0
    4.8170    1.5458   -0.0017 H   0  0  0  0  0  0  0  0  0  0  0  0
    6.4407   -0.3504   -0.4455 H   0  0  0  0  0  0  0  0  0  0  0  0
    5.3698   -1.4490    0.4582 H   0  0  0  0  0  0  0  0  0  0  0  0
    4.8244   -0.7392   -1.0578 H   0  0  0  0  0  0  0  0  0  0  0  0
  1  2  1  0
  2  3  1  0
  3  4  1  0
  4  5  1  0
  5  6  1  0
  6  7  1  0
  7  8  1  0
  8  9  1  0
  9 10  1  0
 10 11  1  0
  1 12  1  0
  1 13  1  0
  1 14  1  0
  2 15  1  0
  2 16  1  0
  4 17  1  0
  4 18  1  0
  5 19  1  0
  5 20  1  0
  7 21  1  0
  7 22  1  0
  8 23  1  0
  8 24  1  0
 10 25  1  0
 10 26  1  0
 11 27  1  0
 11 28  1  0
 11 29  1  0
M  END
>  <anchor_atom_maps>  (58) 
1,2

>  <distance_A>  (58) 
11.301311796031273

>  <Rg_A>  (58) 
3.7689142998198966

>  <energy_kcal_mol>  (58) 
44.45044486965635

>  <ensemble>  (58) 
ETKDGv3 unweighted sampling; not a thermodynamic population

$$$$
Flexible PEG synthetic attachment-point proxy 58
     RDKit          3D

 29 28  0  0  0  0  0  0  0  0999 V2000
    5.0601    0.8244    0.5477 C   0  0  0  0  0  0  0  0  0  1  0  0
    3.9853   -0.1489    0.1037 C   0  0  0  0  0  0  0  0  0  0  0  0
    2.9824    0.5819   -0.5942 O   0  0  0  0  0  0  0  0  0  0  0  0
    2.0030   -0.2408   -1.2320 C   0  0  0  0  0  0  0  0  0  0  0  0
    1.1264   -1.0502   -0.2648 C   0  0  0  0  0  0  0  0  0  0  0  0
    0.5225   -0.2479    0.7518 O   0  0  0  0  0  0  0  0  0  0  0  0
   -0.6118    0.4998    0.3165 C   0  0  0  0  0  0  0  0  0  0  0  0
   -1.8962   -0.3176    0.4419 C   0  0  0  0  0  0  0  0  0  0  0  0
   -2.9996    0.4600   -0.0214 O   0  0  0  0  0  0  0  0  0  0  0  0
   -4.2333   -0.2403    0.1198 C   0  0  0  0  0  0  0  0  0  0  0  0
   -5.3490    0.6454   -0.3980 C   0  0  0  0  0  0  0  0  0  2  0  0
    5.8546    0.3066    1.0923 H   0  0  0  0  0  0  0  0  0  0  0  0
    5.4984    1.3350   -0.3162 H   0  0  0  0  0  0  0  0  0  0  0  0
    4.6353    1.5995    1.1943 H   0  0  0  0  0  0  0  0  0  0  0  0
    3.5522   -0.6344    0.9835 H   0  0  0  0  0  0  0  0  0  0  0  0
    4.4221   -0.9095   -0.5524 H   0  0  0  0  0  0  0  0  0  0  0  0
    2.4995   -0.9109   -1.9434 H   0  0  0  0  0  0  0  0  0  0  0  0
    1.3762    0.4368   -1.8194 H   0  0  0  0  0  0  0  0  0  0  0  0
    1.7429   -1.7903    0.2548 H   0  0  0  0  0  0  0  0  0  0  0  0
    0.3633   -1.6077   -0.8186 H   0  0  0  0  0  0  0  0  0  0  0  0
   -0.4860    0.8824   -0.7020 H   0  0  0  0  0  0  0  0  0  0  0  0
   -0.6910    1.3815    0.9626 H   0  0  0  0  0  0  0  0  0  0  0  0
   -2.0483   -0.6048    1.4892 H   0  0  0  0  0  0  0  0  0  0  0  0
   -1.8234   -1.2380   -0.1479 H   0  0  0  0  0  0  0  0  0  0  0  0
   -4.4056   -0.4772    1.1754 H   0  0  0  0  0  0  0  0  0  0  0  0
   -4.1987   -1.1712   -0.4569 H   0  0  0  0  0  0  0  0  0  0  0  0
   -5.1802    0.9035   -1.4487 H   0  0  0  0  0  0  0  0  0  0  0  0
   -6.3175    0.1457   -0.3083 H   0  0  0  0  0  0  0  0  0  0  0  0
   -5.3839    1.5872    0.1597 H   0  0  0  0  0  0  0  0  0  0  0  0
  1  2  1  0
  2  3  1  0
  3  4  1  0
  4  5  1  0
  5  6  1  0
  6  7  1  0
  7  8  1  0
  8  9  1  0
  9 10  1  0
 10 11  1  0
  1 12  1  0
  1 13  1  0
  1 14  1  0
  2 15  1  0
  2 16  1  0
  4 17  1  0
  4 18  1  0
  5 19  1  0
  5 20  1  0
  7 21  1  0
  7 22  1  0
  8 23  1  0
  8 24  1  0
 10 25  1  0
 10 26  1  0
 11 27  1  0
 11 28  1  0
 11 29  1  0
M  END
>  <anchor_atom_maps>  (59) 
1,2

>  <distance_A>  (59) 
10.45345860194197

>  <Rg_A>  (59) 
3.3833685106315974

>  <energy_kcal_mol>  (59) 
50.04910844964016

>  <ensemble>  (59) 
ETKDGv3 unweighted sampling; not a thermodynamic population

$$$$
Flexible PEG synthetic attachment-point proxy 59
     RDKit          3D

 29 28  0  0  0  0  0  0  0  0999 V2000
    4.4574    0.2697   -1.4692 C   0  0  0  0  0  0  0  0  0  1  0  0
    4.3642   -0.8673   -0.4674 C   0  0  0  0  0  0  0  0  0  0  0  0
    3.0068   -1.2066   -0.1974 O   0  0  0  0  0  0  0  0  0  0  0  0
    2.4022   -0.3684    0.7934 C   0  0  0  0  0  0  0  0  0  0  0  0
    0.9279   -0.7461    0.9434 C   0  0  0  0  0  0  0  0  0  0  0  0
    0.1872   -0.2072   -0.1582 O   0  0  0  0  0  0  0  0  0  0  0  0
   -1.1646   -0.6633   -0.2025 C   0  0  0  0  0  0  0  0  0  0  0  0
   -2.0614    0.0801    0.7901 C   0  0  0  0  0  0  0  0  0  0  0  0
   -3.4185   -0.3535    0.6963 O   0  0  0  0  0  0  0  0  0  0  0  0
   -4.1777    0.3253   -0.3022 C   0  0  0  0  0  0  0  0  0  0  0  0
   -4.7466    1.6222    0.2457 C   0  0  0  0  0  0  0  0  0  2  0  0
    3.8832    0.0357   -2.3716 H   0  0  0  0  0  0  0  0  0  0  0  0
    4.0464    1.1972   -1.0599 H   0  0  0  0  0  0  0  0  0  0  0  0
    5.4989    0.4514   -1.7501 H   0  0  0  0  0  0  0  0  0  0  0  0
    4.8991   -0.6292    0.4589 H   0  0  0  0  0  0  0  0  0  0  0  0
    4.8354   -1.7568   -0.8984 H   0  0  0  0  0  0  0  0  0  0  0  0
    2.9189   -0.5325    1.7452 H   0  0  0  0  0  0  0  0  0  0  0  0
    2.4916    0.6830    0.5025 H   0  0  0  0  0  0  0  0  0  0  0  0
    0.5400   -0.3173    1.8723 H   0  0  0  0  0  0  0  0  0  0  0  0
    0.8189   -1.8362    0.9632 H   0  0  0  0  0  0  0  0  0  0  0  0
   -1.2188   -1.7479   -0.0481 H   0  0  0  0  0  0  0  0  0  0  0  0
   -1.5240   -0.4890   -1.2218 H   0  0  0  0  0  0  0  0  0  0  0  0
   -1.7318   -0.1361    1.8113 H   0  0  0  0  0  0  0  0  0  0  0  0
   -1.9717    1.1650    0.6646 H   0  0  0  0  0  0  0  0  0  0  0  0
   -3.5842    0.5040   -1.2048 H   0  0  0  0  0  0  0  0  0  0  0  0
   -5.0056   -0.3356   -0.5789 H   0  0  0  0  0  0  0  0  0  0  0  0
   -5.3968    2.1008   -0.4923 H   0  0  0  0  0  0  0  0  0  0  0  0
   -5.3248    1.4338    1.1563 H   0  0  0  0  0  0  0  0  0  0  0  0
   -3.9515    2.3246    0.5127 H   0  0  0  0  0  0  0  0  0  0  0  0
  1  2  1  0
  2  3  1  0
  3  4  1  0
  4  5  1  0
  5  6  1  0
  6  7  1  0
  7  8  1  0
  8  9  1  0
  9 10  1  0
 10 11  1  0
  1 12  1  0
  1 13  1  0
  1 14  1  0
  2 15  1  0
  2 16  1  0
  4 17  1  0
  4 18  1  0
  5 19  1  0
  5 20  1  0
  7 21  1  0
  7 22  1  0
  8 23  1  0
  8 24  1  0
 10 25  1  0
 10 26  1  0
 11 27  1  0
 11 28  1  0
 11 29  1  0
M  END
>  <anchor_atom_maps>  (60) 
1,2

>  <distance_A>  (60) 
9.45963922974891

>  <Rg_A>  (60) 
3.3959155957031184

>  <energy_kcal_mol>  (60) 
51.24665361383938

>  <ensemble>  (60) 
ETKDGv3 unweighted sampling; not a thermodynamic population

$$$$
Flexible PEG synthetic attachment-point proxy 60
     RDKit          3D

 29 28  0  0  0  0  0  0  0  0999 V2000
    4.2330    0.7827   -0.2399 C   0  0  0  0  0  0  0  0  0  1  0  0
    3.5063    0.0240    0.8564 C   0  0  0  0  0  0  0  0  0  0  0  0
    3.2826   -1.3454    0.5286 O   0  0  0  0  0  0  0  0  0  0  0  0
    2.3672   -1.5912   -0.5438 C   0  0  0  0  0  0  0  0  0  0  0  0
    0.9208   -1.2179   -0.2067 C   0  0  0  0  0  0  0  0  0  0  0  0
    0.7061    0.1725   -0.4734 O   0  0  0  0  0  0  0  0  0  0  0  0
   -0.5795    0.6357   -0.0571 C   0  0  0  0  0  0  0  0  0  0  0  0
   -1.6898    0.2401   -1.0333 C   0  0  0  0  0  0  0  0  0  0  0  0
   -2.9441    0.8301   -0.6910 O   0  0  0  0  0  0  0  0  0  0  0  0
   -3.6293    0.1339    0.3471 C   0  0  0  0  0  0  0  0  0  0  0  0
   -4.9578    0.8241    0.5868 C   0  0  0  0  0  0  0  0  0  2  0  0
    4.5401    1.7705    0.1164 H   0  0  0  0  0  0  0  0  0  0  0  0
    5.1201    0.2328   -0.5699 H   0  0  0  0  0  0  0  0  0  0  0  0
    3.5940    0.9268   -1.1160 H   0  0  0  0  0  0  0  0  0  0  0  0
    2.5726    0.5183    1.1385 H   0  0  0  0  0  0  0  0  0  0  0  0
    4.1374    0.0243    1.7519 H   0  0  0  0  0  0  0  0  0  0  0  0
    2.4094   -2.6718   -0.7179 H   0  0  0  0  0  0  0  0  0  0  0  0
    2.7124   -1.1002   -1.4588 H   0  0  0  0  0  0  0  0  0  0  0  0
    0.7099   -1.4307    0.8470 H   0  0  0  0  0  0  0  0  0  0  0  0
    0.2478   -1.8007   -0.8431 H   0  0  0  0  0  0  0  0  0  0  0  0
   -0.7917    0.2973    0.9631 H   0  0  0  0  0  0  0  0  0  0  0  0
   -0.5293    1.7293   -0.0063 H   0  0  0  0  0  0  0  0  0  0  0  0
   -1.4225    0.5989   -2.0338 H   0  0  0  0  0  0  0  0  0  0  0  0
   -1.7917   -0.8473   -1.1192 H   0  0  0  0  0  0  0  0  0  0  0  0
   -3.8015   -0.9050    0.0458 H   0  0  0  0  0  0  0  0  0  0  0  0
   -3.0378    0.1477    1.2676 H   0  0  0  0  0  0  0  0  0  0  0  0
   -5.5222    0.3208    1.3768 H   0  0  0  0  0  0  0  0  0  0  0  0
   -4.8029    1.8694    0.8741 H   0  0  0  0  0  0  0  0  0  0  0  0
   -5.5596    0.8310   -0.3281 H   0  0  0  0  0  0  0  0  0  0  0  0
  1  2  1  0
  2  3  1  0
  3  4  1  0
  4  5  1  0
  5  6  1  0
  6  7  1  0
  7  8  1  0
  8  9  1  0
  9 10  1  0
 10 11  1  0
  1 12  1  0
  1 13  1  0
  1 14  1  0
  2 15  1  0
  2 16  1  0
  4 17  1  0
  4 18  1  0
  5 19  1  0
  5 20  1  0
  7 21  1  0
  7 22  1  0
  8 23  1  0
  8 24  1  0
 10 25  1  0
 10 26  1  0
 11 27  1  0
 11 28  1  0
 11 29  1  0
M  END
>  <anchor_atom_maps>  (61) 
1,2

>  <distance_A>  (61) 
9.228051303852235

>  <Rg_A>  (61) 
3.2056309862373915

>  <energy_kcal_mol>  (61) 
50.01888325577616

>  <ensemble>  (61) 
ETKDGv3 unweighted sampling; not a thermodynamic population

$$$$
Flexible PEG synthetic attachment-point proxy 61
     RDKit          3D

 29 28  0  0  0  0  0  0  0  0999 V2000
   -4.9135   -0.0946    0.4178 C   0  0  0  0  0  0  0  0  0  1  0  0
   -3.6472   -0.6599   -0.2001 C   0  0  0  0  0  0  0  0  0  0  0  0
   -2.4817   -0.2286    0.4993 O   0  0  0  0  0  0  0  0  0  0  0  0
   -2.0823    1.1060    0.1667 C   0  0  0  0  0  0  0  0  0  0  0  0
   -0.7703    1.4479    0.8781 C   0  0  0  0  0  0  0  0  0  0  0  0
    0.3827    0.9468    0.1928 O   0  0  0  0  0  0  0  0  0  0  0  0
    0.5320   -0.4739    0.3035 C   0  0  0  0  0  0  0  0  0  0  0  0
    1.9374   -0.8687   -0.1517 C   0  0  0  0  0  0  0  0  0  0  0  0
    2.8803   -0.5464    0.8773 O   0  0  0  0  0  0  0  0  0  0  0  0
    4.2299   -0.8086    0.5033 C   0  0  0  0  0  0  0  0  0  0  0  0
    4.8115    0.3420   -0.2985 C   0  0  0  0  0  0  0  0  0  2  0  0
   -5.7993   -0.5351   -0.0490 H   0  0  0  0  0  0  0  0  0  0  0  0
   -4.9674    0.9909    0.2926 H   0  0  0  0  0  0  0  0  0  0  0  0
   -4.9418   -0.2969    1.4934 H   0  0  0  0  0  0  0  0  0  0  0  0
   -3.5755   -0.4091   -1.2643 H   0  0  0  0  0  0  0  0  0  0  0  0
   -3.6751   -1.7520   -0.1243 H   0  0  0  0  0  0  0  0  0  0  0  0
   -2.8581    1.7999    0.5043 H   0  0  0  0  0  0  0  0  0  0  0  0
   -1.9558    1.1909   -0.9182 H   0  0  0  0  0  0  0  0  0  0  0  0
   -0.6570    2.5369    0.8927 H   0  0  0  0  0  0  0  0  0  0  0  0
   -0.7673    1.0960    1.9159 H   0  0  0  0  0  0  0  0  0  0  0  0
   -0.1989   -0.9536   -0.3540 H   0  0  0  0  0  0  0  0  0  0  0  0
    0.3707   -0.7894    1.3403 H   0  0  0  0  0  0  0  0  0  0  0  0
    1.9733   -1.9496   -0.3258 H   0  0  0  0  0  0  0  0  0  0  0  0
    2.1939   -0.3390   -1.0746 H   0  0  0  0  0  0  0  0  0  0  0  0
    4.8022   -0.9172    1.4305 H   0  0  0  0  0  0  0  0  0  0  0  0
    4.3073   -1.7558   -0.0424 H   0  0  0  0  0  0  0  0  0  0  0  0
    4.6882    1.2874    0.2398 H   0  0  0  0  0  0  0  0  0  0  0  0
    5.8765    0.1797   -0.4886 H   0  0  0  0  0  0  0  0  0  0  0  0
    4.3051    0.4537   -1.2617 H   0  0  0  0  0  0  0  0  0  0  0  0
  1  2  1  0
  2  3  1  0
  3  4  1  0
  4  5  1  0
  5  6  1  0
  6  7  1  0
  7  8  1  0
  8  9  1  0
  9 10  1  0
 10 11  1  0
  1 12  1  0
  1 13  1  0
  1 14  1  0
  2 15  1  0
  2 16  1  0
  4 17  1  0
  4 18  1  0
  5 19  1  0
  5 20  1  0
  7 21  1  0
  7 22  1  0
  8 23  1  0
  8 24  1  0
 10 25  1  0
 10 26  1  0
 11 27  1  0
 11 28  1  0
 11 29  1  0
M  END
>  <anchor_atom_maps>  (62) 
1,2

>  <distance_A>  (62) 
9.761143899658094

>  <Rg_A>  (62) 
3.222752075803422

>  <energy_kcal_mol>  (62) 
49.46103179278035

>  <ensemble>  (62) 
ETKDGv3 unweighted sampling; not a thermodynamic population

$$$$
Flexible PEG synthetic attachment-point proxy 62
     RDKit          3D

 29 28  0  0  0  0  0  0  0  0999 V2000
    5.3481    0.5031    0.5144 C   0  0  0  0  0  0  0  0  0  1  0  0
    4.1882   -0.1370   -0.2219 C   0  0  0  0  0  0  0  0  0  0  0  0
    2.9767    0.4484    0.2498 O   0  0  0  0  0  0  0  0  0  0  0  0
    1.8340   -0.1096   -0.3982 C   0  0  0  0  0  0  0  0  0  0  0  0
    0.5744    0.5839    0.1172 C   0  0  0  0  0  0  0  0  0  0  0  0
   -0.6078    0.1066   -0.5266 O   0  0  0  0  0  0  0  0  0  0  0  0
   -1.0993   -1.1142    0.0394 C   0  0  0  0  0  0  0  0  0  0  0  0
   -2.4202   -1.4987   -0.6333 C   0  0  0  0  0  0  0  0  0  0  0  0
   -3.5562   -0.8436   -0.0573 O   0  0  0  0  0  0  0  0  0  0  0  0
   -3.6132    0.5516   -0.3474 C   0  0  0  0  0  0  0  0  0  0  0  0
   -4.9724    1.0687    0.0837 C   0  0  0  0  0  0  0  0  0  2  0  0
    5.3616    1.5851    0.3462 H   0  0  0  0  0  0  0  0  0  0  0  0
    5.2510    0.3498    1.5943 H   0  0  0  0  0  0  0  0  0  0  0  0
    6.3012    0.0822    0.1824 H   0  0  0  0  0  0  0  0  0  0  0  0
    4.1764   -1.2159   -0.0321 H   0  0  0  0  0  0  0  0  0  0  0  0
    4.2888    0.0378   -1.2987 H   0  0  0  0  0  0  0  0  0  0  0  0
    1.7900   -1.1853   -0.1968 H   0  0  0  0  0  0  0  0  0  0  0  0
    1.9111    0.0250   -1.4837 H   0  0  0  0  0  0  0  0  0  0  0  0
    0.6498    1.6563   -0.0968 H   0  0  0  0  0  0  0  0  0  0  0  0
    0.4906    0.4998    1.2076 H   0  0  0  0  0  0  0  0  0  0  0  0
   -0.3645   -1.9043   -0.1433 H   0  0  0  0  0  0  0  0  0  0  0  0
   -1.2469   -0.9875    1.1175 H   0  0  0  0  0  0  0  0  0  0  0  0
   -2.3958   -1.3108   -1.7127 H   0  0  0  0  0  0  0  0  0  0  0  0
   -2.5886   -2.5700   -0.4818 H   0  0  0  0  0  0  0  0  0  0  0  0
   -3.4761    0.7236   -1.4204 H   0  0  0  0  0  0  0  0  0  0  0  0
   -2.8353    1.0803    0.2112 H   0  0  0  0  0  0  0  0  0  0  0  0
   -5.0631    2.1403   -0.1149 H   0  0  0  0  0  0  0  0  0  0  0  0
   -5.1310    0.8926    1.1528 H   0  0  0  0  0  0  0  0  0  0  0  0
   -5.7716    0.5418   -0.4481 H   0  0  0  0  0  0  0  0  0  0  0  0
  1  2  1  0
  2  3  1  0
  3  4  1  0
  4  5  1  0
  5  6  1  0
  6  7  1  0
  7  8  1  0
  8  9  1  0
  9 10  1  0
 10 11  1  0
  1 12  1  0
  1 13  1  0
  1 14  1  0
  2 15  1  0
  2 16  1  0
  4 17  1  0
  4 18  1  0
  5 19  1  0
  5 20  1  0
  7 21  1  0
  7 22  1  0
  8 23  1  0
  8 24  1  0
 10 25  1  0
 10 26  1  0
 11 27  1  0
 11 28  1  0
 11 29  1  0
M  END
>  <anchor_atom_maps>  (63) 
1,2

>  <distance_A>  (63) 
10.345015985493353

>  <Rg_A>  (63) 
3.4117835610550293

>  <energy_kcal_mol>  (63) 
46.315368548748374

>  <ensemble>  (63) 
ETKDGv3 unweighted sampling; not a thermodynamic population

$$$$
Flexible PEG synthetic attachment-point proxy 63
     RDKit          3D

 29 28  0  0  0  0  0  0  0  0999 V2000
    5.9014   -0.0325   -0.0000 C   0  0  0  0  0  0  0  0  0  1  0  0
    4.6088   -0.0161   -0.7913 C   0  0  0  0  0  0  0  0  0  0  0  0
    3.5189   -0.0980    0.1243 O   0  0  0  0  0  0  0  0  0  0  0  0
    2.2629   -0.0876   -0.5534 C   0  0  0  0  0  0  0  0  0  0  0  0
    1.1355   -0.1767    0.4690 C   0  0  0  0  0  0  0  0  0  0  0  0
   -0.1211   -0.1666   -0.2092 O   0  0  0  0  0  0  0  0  0  0  0  0
   -1.2089   -0.2485    0.7123 C   0  0  0  0  0  0  0  0  0  0  0  0
   -2.5261   -0.2333   -0.0564 C   0  0  0  0  0  0  0  0  0  0  0  0
   -3.6103   -0.3190    0.8675 O   0  0  0  0  0  0  0  0  0  0  0  0
   -4.8867   -0.3664    0.2331 C   0  0  0  0  0  0  0  0  0  0  0  0
   -5.3495    1.0158   -0.1918 C   0  0  0  0  0  0  0  0  0  2  0  0
    6.7671    0.0289   -0.6654 H   0  0  0  0  0  0  0  0  0  0  0  0
    5.9346    0.8075    0.7018 H   0  0  0  0  0  0  0  0  0  0  0  0
    5.9774   -0.9483    0.5955 H   0  0  0  0  0  0  0  0  0  0  0  0
    4.5812   -0.8700   -1.4770 H   0  0  0  0  0  0  0  0  0  0  0  0
    4.5378    0.9120   -1.3692 H   0  0  0  0  0  0  0  0  0  0  0  0
    2.1598    0.8330   -1.1403 H   0  0  0  0  0  0  0  0  0  0  0  0
    2.2027   -0.9348   -1.2471 H   0  0  0  0  0  0  0  0  0  0  0  0
    1.2386   -1.0974    1.0558 H   0  0  0  0  0  0  0  0  0  0  0  0
    1.1955    0.6707    1.1623 H   0  0  0  0  0  0  0  0  0  0  0  0
   -1.1337   -1.1702    1.3017 H   0  0  0  0  0  0  0  0  0  0  0  0
   -1.1762    0.5980    1.4088 H   0  0  0  0  0  0  0  0  0  0  0  0
   -2.5561   -1.0799   -0.7527 H   0  0  0  0  0  0  0  0  0  0  0  0
   -2.5936    0.6873   -0.6461 H   0  0  0  0  0  0  0  0  0  0  0  0
   -5.5924   -0.7633    0.9703 H   0  0  0  0  0  0  0  0  0  0  0  0
   -4.8739   -1.0616   -0.6138 H   0  0  0  0  0  0  0  0  0  0  0  0
   -4.7135    1.4233   -0.9831 H   0  0  0  0  0  0  0  0  0  0  0  0
   -6.3771    0.9797   -0.5653 H   0  0  0  0  0  0  0  0  0  0  0  0
   -5.3029    1.7140    0.6501 H   0  0  0  0  0  0  0  0  0  0  0  0
  1  2  1  0
  2  3  1  0
  3  4  1  0
  4  5  1  0
  5  6  1  0
  6  7  1  0
  7  8  1  0
  8  9  1  0
  9 10  1  0
 10 11  1  0
  1 12  1  0
  1 13  1  0
  1 14  1  0
  2 15  1  0
  2 16  1  0
  4 17  1  0
  4 18  1  0
  5 19  1  0
  5 20  1  0
  7 21  1  0
  7 22  1  0
  8 23  1  0
  8 24  1  0
 10 25  1  0
 10 26  1  0
 11 27  1  0
 11 28  1  0
 11 29  1  0
M  END
>  <anchor_atom_maps>  (64) 
1,2

>  <distance_A>  (64) 
11.30128737193156

>  <Rg_A>  (64) 
3.7689114260986454

>  <energy_kcal_mol>  (64) 
44.4504448437955

>  <ensemble>  (64) 
ETKDGv3 unweighted sampling; not a thermodynamic population

$$$$
Flexible PEG synthetic attachment-point proxy 64
     RDKit          3D

 29 28  0  0  0  0  0  0  0  0999 V2000
   -3.9564   -0.0523   -1.1074 C   0  0  0  0  0  0  0  0  0  1  0  0
   -3.8900    0.9780    0.0059 C   0  0  0  0  0  0  0  0  0  0  0  0
   -2.5497    1.1770    0.4462 O   0  0  0  0  0  0  0  0  0  0  0  0
   -2.1078    0.1944    1.3852 C   0  0  0  0  0  0  0  0  0  0  0  0
   -0.6571    0.4775    1.7898 C   0  0  0  0  0  0  0  0  0  0  0  0
    0.2830    0.3982    0.7146 O   0  0  0  0  0  0  0  0  0  0  0  0
    0.3969   -0.9041    0.1356 C   0  0  0  0  0  0  0  0  0  0  0  0
    1.6710   -0.9695   -0.7064 C   0  0  0  0  0  0  0  0  0  0  0  0
    2.7978   -1.1583    0.1582 O   0  0  0  0  0  0  0  0  0  0  0  0
    4.0448   -1.1035   -0.5294 C   0  0  0  0  0  0  0  0  0  0  0  0
    4.5159    0.3302   -0.6954 C   0  0  0  0  0  0  0  0  0  2  0  0
   -3.6694   -1.0454   -0.7497 H   0  0  0  0  0  0  0  0  0  0  0  0
   -4.9699   -0.1152   -1.5141 H   0  0  0  0  0  0  0  0  0  0  0  0
   -3.2659    0.2092   -1.9159 H   0  0  0  0  0  0  0  0  0  0  0  0
   -4.2441    1.9391   -0.3810 H   0  0  0  0  0  0  0  0  0  0  0  0
   -4.5394    0.7029    0.8446 H   0  0  0  0  0  0  0  0  0  0  0  0
   -2.1973   -0.8043    0.9493 H   0  0  0  0  0  0  0  0  0  0  0  0
   -2.7427    0.2451    2.2770 H   0  0  0  0  0  0  0  0  0  0  0  0
   -0.3434   -0.2035    2.5889 H   0  0  0  0  0  0  0  0  0  0  0  0
   -0.5875    1.4989    2.1791 H   0  0  0  0  0  0  0  0  0  0  0  0
    0.4236   -1.6649    0.9237 H   0  0  0  0  0  0  0  0  0  0  0  0
   -0.4685   -1.0697   -0.5135 H   0  0  0  0  0  0  0  0  0  0  0  0
    1.7878   -0.0480   -1.2854 H   0  0  0  0  0  0  0  0  0  0  0  0
    1.6158   -1.8268   -1.3860 H   0  0  0  0  0  0  0  0  0  0  0  0
    3.9821   -1.6187   -1.4947 H   0  0  0  0  0  0  0  0  0  0  0  0
    4.7717   -1.6451    0.0847 H   0  0  0  0  0  0  0  0  0  0  0  0
    5.5187    0.3584   -1.1314 H   0  0  0  0  0  0  0  0  0  0  0  0
    4.5362    0.8428    0.2719 H   0  0  0  0  0  0  0  0  0  0  0  0
    3.8437    0.8989   -1.3445 H   0  0  0  0  0  0  0  0  0  0  0  0
  1  2  1  0
  2  3  1  0
  3  4  1  0
  4  5  1  0
  5  6  1  0
  6  7  1  0
  7  8  1  0
  8  9  1  0
  9 10  1  0
 10 11  1  0
  1 12  1  0
  1 13  1  0
  1 14  1  0
  2 15  1  0
  2 16  1  0
  4 17  1  0
  4 18  1  0
  5 19  1  0
  5 20  1  0
  7 21  1  0
  7 22  1  0
  8 23  1  0
  8 24  1  0
 10 25  1  0
 10 26  1  0
 11 27  1  0
 11 28  1  0
 11 29  1  0
M  END
>  <anchor_atom_maps>  (65) 
1,2

>  <distance_A>  (65) 
8.490958517944218

>  <Rg_A>  (65) 
3.1439643640449013

>  <energy_kcal_mol>  (65) 
52.09458399318646

>  <ensemble>  (65) 
ETKDGv3 unweighted sampling; not a thermodynamic population

$$$$
Flexible PEG synthetic attachment-point proxy 65
     RDKit          3D

 29 28  0  0  0  0  0  0  0  0999 V2000
    5.3169    0.4100    1.0402 C   0  0  0  0  0  0  0  0  0  1  0  0
    4.1622    0.4797    0.0601 C   0  0  0  0  0  0  0  0  0  0  0  0
    3.4584   -0.7591    0.1087 O   0  0  0  0  0  0  0  0  0  0  0  0
    2.3560   -0.8105   -0.7969 C   0  0  0  0  0  0  0  0  0  0  0  0
    1.1028   -0.1609   -0.2116 C   0  0  0  0  0  0  0  0  0  0  0  0
    0.0296   -0.2886   -1.1450 O   0  0  0  0  0  0  0  0  0  0  0  0
   -1.1858    0.3018   -0.6821 C   0  0  0  0  0  0  0  0  0  0  0  0
   -1.9568   -0.6261    0.2594 C   0  0  0  0  0  0  0  0  0  0  0  0
   -3.1785   -0.0364    0.7054 O   0  0  0  0  0  0  0  0  0  0  0  0
   -4.2504   -0.2079   -0.2192 C   0  0  0  0  0  0  0  0  0  0  0  0
   -5.4927    0.4326    0.3685 C   0  0  0  0  0  0  0  0  0  2  0  0
    4.9501    0.2265    2.0555 H   0  0  0  0  0  0  0  0  0  0  0  0
    5.8901    1.3414    1.0348 H   0  0  0  0  0  0  0  0  0  0  0  0
    5.9869   -0.4188    0.7887 H   0  0  0  0  0  0  0  0  0  0  0  0
    4.5462    0.6475   -0.9521 H   0  0  0  0  0  0  0  0  0  0  0  0
    3.4977    1.3050    0.3336 H   0  0  0  0  0  0  0  0  0  0  0  0
    2.6193   -0.3684   -1.7656 H   0  0  0  0  0  0  0  0  0  0  0  0
    2.1456   -1.8679   -0.9944 H   0  0  0  0  0  0  0  0  0  0  0  0
    0.8511   -0.6468    0.7371 H   0  0  0  0  0  0  0  0  0  0  0  0
    1.2839    0.8995   -0.0061 H   0  0  0  0  0  0  0  0  0  0  0  0
   -1.7924    0.5082   -1.5696 H   0  0  0  0  0  0  0  0  0  0  0  0
   -0.9978    1.2750   -0.2125 H   0  0  0  0  0  0  0  0  0  0  0  0
   -2.1347   -1.6038   -0.2048 H   0  0  0  0  0  0  0  0  0  0  0  0
   -1.3567   -0.8210    1.1538 H   0  0  0  0  0  0  0  0  0  0  0  0
   -4.4285   -1.2760   -0.3850 H   0  0  0  0  0  0  0  0  0  0  0  0
   -4.0086    0.2685   -1.1742 H   0  0  0  0  0  0  0  0  0  0  0  0
   -6.3455    0.3223   -0.3072 H   0  0  0  0  0  0  0  0  0  0  0  0
   -5.3252    1.4985    0.5553 H   0  0  0  0  0  0  0  0  0  0  0  0
   -5.7434   -0.0242    1.3316 H   0  0  0  0  0  0  0  0  0  0  0  0
  1  2  1  0
  2  3  1  0
  3  4  1  0
  4  5  1  0
  5  6  1  0
  6  7  1  0
  7  8  1  0
  8  9  1  0
  9 10  1  0
 10 11  1  0
  1 12  1  0
  1 13  1  0
  1 14  1  0
  2 15  1  0
  2 16  1  0
  4 17  1  0
  4 18  1  0
  5 19  1  0
  5 20  1  0
  7 21  1  0
  7 22  1  0
  8 23  1  0
  8 24  1  0
 10 25  1  0
 10 26  1  0
 11 27  1  0
 11 28  1  0
 11 29  1  0
M  END
>  <anchor_atom_maps>  (66) 
1,2

>  <distance_A>  (66) 
10.830525490873013

>  <Rg_A>  (66) 
3.548120633665287

>  <energy_kcal_mol>  (66) 
47.84294861278361

>  <ensemble>  (66) 
ETKDGv3 unweighted sampling; not a thermodynamic population

$$$$
Flexible PEG synthetic attachment-point proxy 66
     RDKit          3D

 29 28  0  0  0  0  0  0  0  0999 V2000
    4.6822    1.2276   -0.7265 C   0  0  0  0  0  0  0  0  0  1  0  0
    3.8899    0.2477    0.1172 C   0  0  0  0  0  0  0  0  0  0  0  0
    3.0573   -0.5154   -0.7496 O   0  0  0  0  0  0  0  0  0  0  0  0
    2.3394   -1.5619   -0.0881 C   0  0  0  0  0  0  0  0  0  0  0  0
    1.1586   -1.0597    0.7485 C   0  0  0  0  0  0  0  0  0  0  0  0
    0.1676   -0.4865   -0.1085 O   0  0  0  0  0  0  0  0  0  0  0  0
   -0.9456    0.0153    0.6283 C   0  0  0  0  0  0  0  0  0  0  0  0
   -1.9374    0.6655   -0.3342 C   0  0  0  0  0  0  0  0  0  0  0  0
   -3.0793    1.1673    0.3616 O   0  0  0  0  0  0  0  0  0  0  0  0
   -4.1213    0.2082    0.5288 C   0  0  0  0  0  0  0  0  0  0  0  0
   -5.0199    0.1726   -0.6947 C   0  0  0  0  0  0  0  0  0  2  0  0
    5.3400    1.8379   -0.1013 H   0  0  0  0  0  0  0  0  0  0  0  0
    5.2905    0.6961   -1.4658 H   0  0  0  0  0  0  0  0  0  0  0  0
    4.0098    1.8889   -1.2830 H   0  0  0  0  0  0  0  0  0  0  0  0
    4.5759   -0.4147    0.6560 H   0  0  0  0  0  0  0  0  0  0  0  0
    3.2813    0.8003    0.8388 H   0  0  0  0  0  0  0  0  0  0  0  0
    3.0302   -2.1470    0.5294 H   0  0  0  0  0  0  0  0  0  0  0  0
    1.9614   -2.2188   -0.8789 H   0  0  0  0  0  0  0  0  0  0  0  0
    1.4831   -0.3092    1.4756 H   0  0  0  0  0  0  0  0  0  0  0  0
    0.7143   -1.9051    1.2857 H   0  0  0  0  0  0  0  0  0  0  0  0
   -0.6104    0.7556    1.3647 H   0  0  0  0  0  0  0  0  0  0  0  0
   -1.4232   -0.8047    1.1759 H   0  0  0  0  0  0  0  0  0  0  0  0
   -1.4499    1.5167   -0.8230 H   0  0  0  0  0  0  0  0  0  0  0  0
   -2.2206   -0.0250   -1.1368 H   0  0  0  0  0  0  0  0  0  0  0  0
   -3.7175   -0.7847    0.7533 H   0  0  0  0  0  0  0  0  0  0  0  0
   -4.7129    0.5256    1.3937 H   0  0  0  0  0  0  0  0  0  0  0  0
   -5.4053    1.1730   -0.9174 H   0  0  0  0  0  0  0  0  0  0  0  0
   -5.8649   -0.5030   -0.5336 H   0  0  0  0  0  0  0  0  0  0  0  0
   -4.4733   -0.1627   -1.5811 H   0  0  0  0  0  0  0  0  0  0  0  0
  1  2  1  0
  2  3  1  0
  3  4  1  0
  4  5  1  0
  5  6  1  0
  6  7  1  0
  7  8  1  0
  8  9  1  0
  9 10  1  0
 10 11  1  0
  1 12  1  0
  1 13  1  0
  1 14  1  0
  2 15  1  0
  2 16  1  0
  4 17  1  0
  4 18  1  0
  5 19  1  0
  5 20  1  0
  7 21  1  0
  7 22  1  0
  8 23  1  0
  8 24  1  0
 10 25  1  0
 10 26  1  0
 11 27  1  0
 11 28  1  0
 11 29  1  0
M  END
>  <anchor_atom_maps>  (67) 
1,2

>  <distance_A>  (67) 
9.759392524172563

>  <Rg_A>  (67) 
3.3573724670274205

>  <energy_kcal_mol>  (67) 
50.36440932077001

>  <ensemble>  (67) 
ETKDGv3 unweighted sampling; not a thermodynamic population

$$$$
Flexible PEG synthetic attachment-point proxy 67
     RDKit          3D

 29 28  0  0  0  0  0  0  0  0999 V2000
   -4.3910    1.6146    0.7088 C   0  0  0  0  0  0  0  0  0  1  0  0
   -3.8157    0.5912   -0.2499 C   0  0  0  0  0  0  0  0  0  0  0  0
   -2.7430   -0.0832    0.4017 O   0  0  0  0  0  0  0  0  0  0  0  0
   -2.1586   -1.0839   -0.4409 C   0  0  0  0  0  0  0  0  0  0  0  0
   -0.9477   -1.6949    0.2620 C   0  0  0  0  0  0  0  0  0  0  0  0
    0.1620   -0.7968    0.1615 O   0  0  0  0  0  0  0  0  0  0  0  0
    1.2897   -1.2640    0.9088 C   0  0  0  0  0  0  0  0  0  0  0  0
    2.4801   -0.3392    0.6589 C   0  0  0  0  0  0  0  0  0  0  0  0
    3.0557   -0.6434   -0.6173 O   0  0  0  0  0  0  0  0  0  0  0  0
    4.1055    0.2480   -0.9836 C   0  0  0  0  0  0  0  0  0  0  0  0
    3.5545    1.5115   -1.6200 C   0  0  0  0  0  0  0  0  0  2  0  0
   -3.6225    2.3332    1.0123 H   0  0  0  0  0  0  0  0  0  0  0  0
   -4.7507    1.1284    1.6216 H   0  0  0  0  0  0  0  0  0  0  0  0
   -5.2204    2.1582    0.2479 H   0  0  0  0  0  0  0  0  0  0  0  0
   -4.5897   -0.1306   -0.5329 H   0  0  0  0  0  0  0  0  0  0  0  0
   -3.4452    1.0929   -1.1505 H   0  0  0  0  0  0  0  0  0  0  0  0
   -1.8572   -0.6305   -1.3920 H   0  0  0  0  0  0  0  0  0  0  0  0
   -2.9081   -1.8617   -0.6228 H   0  0  0  0  0  0  0  0  0  0  0  0
   -0.6756   -2.6356   -0.2286 H   0  0  0  0  0  0  0  0  0  0  0  0
   -1.1742   -1.8801    1.3181 H   0  0  0  0  0  0  0  0  0  0  0  0
    1.0297   -1.2469    1.9727 H   0  0  0  0  0  0  0  0  0  0  0  0
    1.5324   -2.2881    0.6036 H   0  0  0  0  0  0  0  0  0  0  0  0
    3.2419   -0.5094    1.4272 H   0  0  0  0  0  0  0  0  0  0  0  0
    2.1559    0.7059    0.6873 H   0  0  0  0  0  0  0  0  0  0  0  0
    4.7264   -0.2753   -1.7182 H   0  0  0  0  0  0  0  0  0  0  0  0
    4.7415    0.4785   -0.1214 H   0  0  0  0  0  0  0  0  0  0  0  0
    2.8897    1.2638   -2.4540 H   0  0  0  0  0  0  0  0  0  0  0  0
    2.9670    2.0952   -0.9052 H   0  0  0  0  0  0  0  0  0  0  0  0
    4.3675    2.1421   -1.9912 H   0  0  0  0  0  0  0  0  0  0  0  0
  1  2  1  0
  2  3  1  0
  3  4  1  0
  4  5  1  0
  5  6  1  0
  6  7  1  0
  7  8  1  0
  8  9  1  0
  9 10  1  0
 10 11  1  0
  1 12  1  0
  1 13  1  0
  1 14  1  0
  2 15  1  0
  2 16  1  0
  4 17  1  0
  4 18  1  0
  5 19  1  0
  5 20  1  0
  7 21  1  0
  7 22  1  0
  8 23  1  0
  8 24  1  0
 10 25  1  0
 10 26  1  0
 11 27  1  0
 11 28  1  0
 11 29  1  0
M  END
>  <anchor_atom_maps>  (68) 
1,2

>  <distance_A>  (68) 
8.28034342916408

>  <Rg_A>  (68) 
3.2365513606771263

>  <energy_kcal_mol>  (68) 
48.40460218195135

>  <ensemble>  (68) 
ETKDGv3 unweighted sampling; not a thermodynamic population

$$$$
Flexible PEG synthetic attachment-point proxy 68
     RDKit          3D

 29 28  0  0  0  0  0  0  0  0999 V2000
    5.5550    0.5327   -0.6179 C   0  0  0  0  0  0  0  0  0  1  0  0
    4.2207   -0.1830   -0.5379 C   0  0  0  0  0  0  0  0  0  0  0  0
    3.3994    0.5061    0.4023 O   0  0  0  0  0  0  0  0  0  0  0  0
    2.1275   -0.1134    0.5951 C   0  0  0  0  0  0  0  0  0  0  0  0
    1.1278    0.2607   -0.5013 C   0  0  0  0  0  0  0  0  0  0  0  0
   -0.1439   -0.3578   -0.3061 O   0  0  0  0  0  0  0  0  0  0  0  0
   -0.9589    0.3225    0.6560 C   0  0  0  0  0  0  0  0  0  0  0  0
   -2.3593   -0.2929    0.6575 C   0  0  0  0  0  0  0  0  0  0  0  0
   -3.0794    0.1701   -0.4900 O   0  0  0  0  0  0  0  0  0  0  0  0
   -4.3186   -0.5041   -0.6932 C   0  0  0  0  0  0  0  0  0  0  0  0
   -5.3845   -0.0338    0.2804 C   0  0  0  0  0  0  0  0  0  2  0  0
    5.4164    1.5728   -0.9311 H   0  0  0  0  0  0  0  0  0  0  0  0
    6.2222    0.0361   -1.3279 H   0  0  0  0  0  0  0  0  0  0  0  0
    6.0390    0.5574    0.3641 H   0  0  0  0  0  0  0  0  0  0  0  0
    3.7477   -0.1866   -1.5245 H   0  0  0  0  0  0  0  0  0  0  0  0
    4.3748   -1.2163   -0.2085 H   0  0  0  0  0  0  0  0  0  0  0  0
    2.2290   -1.2019    0.6837 H   0  0  0  0  0  0  0  0  0  0  0  0
    1.7540    0.2344    1.5635 H   0  0  0  0  0  0  0  0  0  0  0  0
    1.4998   -0.0879   -1.4698 H   0  0  0  0  0  0  0  0  0  0  0  0
    1.0278    1.3491   -0.5917 H   0  0  0  0  0  0  0  0  0  0  0  0
   -1.0165    1.3870    0.4029 H   0  0  0  0  0  0  0  0  0  0  0  0
   -0.5117    0.2004    1.6471 H   0  0  0  0  0  0  0  0  0  0  0  0
   -2.2900   -1.3861    0.6344 H   0  0  0  0  0  0  0  0  0  0  0  0
   -2.8902    0.0268    1.5594 H   0  0  0  0  0  0  0  0  0  0  0  0
   -4.6430   -0.2691   -1.7123 H   0  0  0  0  0  0  0  0  0  0  0  0
   -4.1800   -1.5896   -0.6387 H   0  0  0  0  0  0  0  0  0  0  0  0
   -6.3566   -0.4653    0.0247 H   0  0  0  0  0  0  0  0  0  0  0  0
   -5.4661    1.0578    0.2664 H   0  0  0  0  0  0  0  0  0  0  0  0
   -5.1423   -0.3263    1.3065 H   0  0  0  0  0  0  0  0  0  0  0  0
  1  2  1  0
  2  3  1  0
  3  4  1  0
  4  5  1  0
  5  6  1  0
  6  7  1  0
  7  8  1  0
  8  9  1  0
  9 10  1  0
 10 11  1  0
  1 12  1  0
  1 13  1  0
  1 14  1  0
  2 15  1  0
  2 16  1  0
  4 17  1  0
  4 18  1  0
  5 19  1  0
  5 20  1  0
  7 21  1  0
  7 22  1  0
  8 23  1  0
  8 24  1  0
 10 25  1  0
 10 26  1  0
 11 27  1  0
 11 28  1  0
 11 29  1  0
M  END
>  <anchor_atom_maps>  (69) 
1,2

>  <distance_A>  (69) 
10.990944182356303

>  <Rg_A>  (69) 
3.5436122263101915

>  <energy_kcal_mol>  (69) 
49.731807255607336

>  <ensemble>  (69) 
ETKDGv3 unweighted sampling; not a thermodynamic population

$$$$
Flexible PEG synthetic attachment-point proxy 69
     RDKit          3D

 29 28  0  0  0  0  0  0  0  0999 V2000
    4.2559   -0.6757    0.6781 C   0  0  0  0  0  0  0  0  0  1  0  0
    3.6561    0.3422   -0.2718 C   0  0  0  0  0  0  0  0  0  0  0  0
    2.3865    0.7380    0.2413 O   0  0  0  0  0  0  0  0  0  0  0  0
    1.7036    1.6735   -0.6033 C   0  0  0  0  0  0  0  0  0  0  0  0
    0.9223    0.9761   -1.7237 C   0  0  0  0  0  0  0  0  0  0  0  0
   -0.3654    0.5009   -1.3179 O   0  0  0  0  0  0  0  0  0  0  0  0
   -0.3120   -0.5412   -0.3367 C   0  0  0  0  0  0  0  0  0  0  0  0
   -1.7059   -1.1475   -0.1686 C   0  0  0  0  0  0  0  0  0  0  0  0
   -2.5360   -0.2523    0.5801 O   0  0  0  0  0  0  0  0  0  0  0  0
   -3.8686   -0.7417    0.6965 C   0  0  0  0  0  0  0  0  0  0  0  0
   -4.6740    0.2506    1.5114 C   0  0  0  0  0  0  0  0  0  2  0  0
    4.3643   -0.2504    1.6813 H   0  0  0  0  0  0  0  0  0  0  0  0
    5.2373   -1.0065    0.3269 H   0  0  0  0  0  0  0  0  0  0  0  0
    3.6008   -1.5483    0.7710 H   0  0  0  0  0  0  0  0  0  0  0  0
    3.5456   -0.1019   -1.2658 H   0  0  0  0  0  0  0  0  0  0  0  0
    4.3129    1.2161   -0.3410 H   0  0  0  0  0  0  0  0  0  0  0  0
    2.4267    2.3830   -1.0215 H   0  0  0  0  0  0  0  0  0  0  0  0
    1.0120    2.2328    0.0353 H   0  0  0  0  0  0  0  0  0  0  0  0
    1.4813    0.1458   -2.1667 H   0  0  0  0  0  0  0  0  0  0  0  0
    0.7300    1.7063   -2.5167 H   0  0  0  0  0  0  0  0  0  0  0  0
    0.0225   -0.1249    0.6182 H   0  0  0  0  0  0  0  0  0  0  0  0
    0.3824   -1.3182   -0.6743 H   0  0  0  0  0  0  0  0  0  0  0  0
   -1.6294   -2.0918    0.3813 H   0  0  0  0  0  0  0  0  0  0  0  0
   -2.1596   -1.3276   -1.1498 H   0  0  0  0  0  0  0  0  0  0  0  0
   -4.3115   -0.8509   -0.2995 H   0  0  0  0  0  0  0  0  0  0  0  0
   -3.8630   -1.7165    1.1964 H   0  0  0  0  0  0  0  0  0  0  0  0
   -4.2327    0.3819    2.5049 H   0  0  0  0  0  0  0  0  0  0  0  0
   -5.7080   -0.0866    1.6260 H   0  0  0  0  0  0  0  0  0  0  0  0
   -4.6742    1.2344    1.0304 H   0  0  0  0  0  0  0  0  0  0  0  0
  1  2  1  0
  2  3  1  0
  3  4  1  0
  4  5  1  0
  5  6  1  0
  6  7  1  0
  7  8  1  0
  8  9  1  0
  9 10  1  0
 10 11  1  0
  1 12  1  0
  1 13  1  0
  1 14  1  0
  2 15  1  0
  2 16  1  0
  4 17  1  0
  4 18  1  0
  5 19  1  0
  5 20  1  0
  7 21  1  0
  7 22  1  0
  8 23  1  0
  8 24  1  0
 10 25  1  0
 10 26  1  0
 11 27  1  0
 11 28  1  0
 11 29  1  0
M  END
>  <anchor_atom_maps>  (70) 
1,2

>  <distance_A>  (70) 
9.016450863234812

>  <Rg_A>  (70) 
3.122423712941812

>  <energy_kcal_mol>  (70) 
48.815232024229374

>  <ensemble>  (70) 
ETKDGv3 unweighted sampling; not a thermodynamic population

$$$$
Flexible PEG synthetic attachment-point proxy 70
     RDKit          3D

 29 28  0  0  0  0  0  0  0  0999 V2000
   -4.8381    0.7125   -0.2126 C   0  0  0  0  0  0  0  0  0  1  0  0
   -3.4063    1.1102   -0.5241 C   0  0  0  0  0  0  0  0  0  0  0  0
   -2.6091   -0.0163   -0.8792 O   0  0  0  0  0  0  0  0  0  0  0  0
   -2.2146   -0.8150    0.2398 C   0  0  0  0  0  0  0  0  0  0  0  0
   -1.2322   -1.8960   -0.2241 C   0  0  0  0  0  0  0  0  0  0  0  0
    0.0248   -1.3644   -0.6571 O   0  0  0  0  0  0  0  0  0  0  0  0
    0.8922   -1.0116    0.4178 C   0  0  0  0  0  0  0  0  0  0  0  0
    2.2122   -0.4995   -0.1502 C   0  0  0  0  0  0  0  0  0  0  0  0
    3.0840   -0.1564    0.9273 O   0  0  0  0  0  0  0  0  0  0  0  0
    4.3654    0.2911    0.4893 C   0  0  0  0  0  0  0  0  0  0  0  0
    4.3285    1.7452    0.0538 C   0  0  0  0  0  0  0  0  0  2  0  0
   -5.4617    1.5999   -0.0702 H   0  0  0  0  0  0  0  0  0  0  0  0
   -4.8938    0.1084    0.6979 H   0  0  0  0  0  0  0  0  0  0  0  0
   -5.2575    0.1109   -1.0255 H   0  0  0  0  0  0  0  0  0  0  0  0
   -2.9533    1.6556    0.3114 H   0  0  0  0  0  0  0  0  0  0  0  0
   -3.4070    1.7825   -1.3885 H   0  0  0  0  0  0  0  0  0  0  0  0
   -1.7607   -0.1746    1.0017 H   0  0  0  0  0  0  0  0  0  0  0  0
   -3.0994   -1.3019    0.6617 H   0  0  0  0  0  0  0  0  0  0  0  0
   -1.0675   -2.6361    0.5670 H   0  0  0  0  0  0  0  0  0  0  0  0
   -1.6573   -2.4185   -1.0879 H   0  0  0  0  0  0  0  0  0  0  0  0
    0.4406   -0.2342    1.0427 H   0  0  0  0  0  0  0  0  0  0  0  0
    1.0782   -1.8853    1.0537 H   0  0  0  0  0  0  0  0  0  0  0  0
    2.6716   -1.2756   -0.7739 H   0  0  0  0  0  0  0  0  0  0  0  0
    2.0222    0.3722   -0.7856 H   0  0  0  0  0  0  0  0  0  0  0  0
    4.7517   -0.3550   -0.3070 H   0  0  0  0  0  0  0  0  0  0  0  0
    5.0433    0.1962    1.3440 H   0  0  0  0  0  0  0  0  0  0  0  0
    5.3375    2.1075   -0.1638 H   0  0  0  0  0  0  0  0  0  0  0  0
    3.7180    1.8771   -0.8442 H   0  0  0  0  0  0  0  0  0  0  0  0
    3.8885    2.3712    0.8368 H   0  0  0  0  0  0  0  0  0  0  0  0
  1  2  1  0
  2  3  1  0
  3  4  1  0
  4  5  1  0
  5  6  1  0
  6  7  1  0
  7  8  1  0
  8  9  1  0
  9 10  1  0
 10 11  1  0
  1 12  1  0
  1 13  1  0
  1 14  1  0
  2 15  1  0
  2 16  1  0
  4 17  1  0
  4 18  1  0
  5 19  1  0
  5 20  1  0
  7 21  1  0
  7 22  1  0
  8 23  1  0
  8 24  1  0
 10 25  1  0
 10 26  1  0
 11 27  1  0
 11 28  1  0
 11 29  1  0
M  END
>  <anchor_atom_maps>  (71) 
1,2

>  <distance_A>  (71) 
9.228440204874003

>  <Rg_A>  (71) 
3.30160196581166

>  <energy_kcal_mol>  (71) 
49.82021342279367

>  <ensemble>  (71) 
ETKDGv3 unweighted sampling; not a thermodynamic population

$$$$
Flexible PEG synthetic attachment-point proxy 71
     RDKit          3D

 29 28  0  0  0  0  0  0  0  0999 V2000
   -5.1450    0.4359   -0.6201 C   0  0  0  0  0  0  0  0  0  1  0  0
   -4.2827    0.2554    0.6166 C   0  0  0  0  0  0  0  0  0  0  0  0
   -3.6651   -1.0299    0.6178 O   0  0  0  0  0  0  0  0  0  0  0  0
   -2.4420   -1.0873   -0.1163 C   0  0  0  0  0  0  0  0  0  0  0  0
   -1.2514   -0.6832    0.7513 C   0  0  0  0  0  0  0  0  0  0  0  0
   -0.0541   -0.7627   -0.0227 O   0  0  0  0  0  0  0  0  0  0  0  0
    1.0931   -0.4174    0.7543 C   0  0  0  0  0  0  0  0  0  0  0  0
    2.3432   -0.5218   -0.1131 C   0  0  0  0  0  0  0  0  0  0  0  0
    3.4855   -0.1703    0.6666 O   0  0  0  0  0  0  0  0  0  0  0  0
    4.7138   -0.2997   -0.0465 C   0  0  0  0  0  0  0  0  0  0  0  0
    4.9572    0.8892   -0.9588 C   0  0  0  0  0  0  0  0  0  2  0  0
   -4.5417    0.4183   -1.5326 H   0  0  0  0  0  0  0  0  0  0  0  0
   -5.6831    1.3874   -0.5801 H   0  0  0  0  0  0  0  0  0  0  0  0
   -5.8727   -0.3780   -0.7031 H   0  0  0  0  0  0  0  0  0  0  0  0
   -4.9218    0.3043    1.5042 H   0  0  0  0  0  0  0  0  0  0  0  0
   -3.5402    1.0557    0.7019 H   0  0  0  0  0  0  0  0  0  0  0  0
   -2.4879   -0.4836   -1.0299 H   0  0  0  0  0  0  0  0  0  0  0  0
   -2.3046   -2.1240   -0.4441 H   0  0  0  0  0  0  0  0  0  0  0  0
   -1.1850   -1.3505    1.6189 H   0  0  0  0  0  0  0  0  0  0  0  0
   -1.3800    0.3382    1.1263 H   0  0  0  0  0  0  0  0  0  0  0  0
    0.9923    0.6047    1.1387 H   0  0  0  0  0  0  0  0  0  0  0  0
    1.1814   -1.0914    1.6148 H   0  0  0  0  0  0  0  0  0  0  0  0
    2.2453    0.1457   -0.9760 H   0  0  0  0  0  0  0  0  0  0  0  0
    2.4445   -1.5460   -0.4915 H   0  0  0  0  0  0  0  0  0  0  0  0
    5.5120   -0.3389    0.7021 H   0  0  0  0  0  0  0  0  0  0  0  0
    4.7420   -1.2431   -0.6033 H   0  0  0  0  0  0  0  0  0  0  0  0
    4.8688    1.8275   -0.4016 H   0  0  0  0  0  0  0  0  0  0  0  0
    5.9547    0.8347   -1.4044 H   0  0  0  0  0  0  0  0  0  0  0  0
    4.2236    0.9262   -1.7695 H   0  0  0  0  0  0  0  0  0  0  0  0
  1  2  1  0
  2  3  1  0
  3  4  1  0
  4  5  1  0
  5  6  1  0
  6  7  1  0
  7  8  1  0
  8  9  1  0
  9 10  1  0
 10 11  1  0
  1 12  1  0
  1 13  1  0
  1 14  1  0
  2 15  1  0
  2 16  1  0
  4 17  1  0
  4 18  1  0
  5 19  1  0
  5 20  1  0
  7 21  1  0
  7 22  1  0
  8 23  1  0
  8 24  1  0
 10 25  1  0
 10 26  1  0
 11 27  1  0
 11 28  1  0
 11 29  1  0
M  END
>  <anchor_atom_maps>  (72) 
1,2

>  <distance_A>  (72) 
10.118007986738117

>  <Rg_A>  (72) 
3.6005356078267132

>  <energy_kcal_mol>  (72) 
47.6712219217008

>  <ensemble>  (72) 
ETKDGv3 unweighted sampling; not a thermodynamic population

$$$$
Flexible PEG synthetic attachment-point proxy 72
     RDKit          3D

 29 28  0  0  0  0  0  0  0  0999 V2000
    5.0429    0.3497   -0.6879 C   0  0  0  0  0  0  0  0  0  1  0  0
    4.1409   -0.8204   -0.3380 C   0  0  0  0  0  0  0  0  0  0  0  0
    3.0805   -0.4314    0.5310 O   0  0  0  0  0  0  0  0  0  0  0  0
    2.0311    0.2832   -0.1287 C   0  0  0  0  0  0  0  0  0  0  0  0
    0.8609    0.4799    0.8415 C   0  0  0  0  0  0  0  0  0  0  0  0
    0.1582   -0.7441    1.0878 O   0  0  0  0  0  0  0  0  0  0  0  0
   -0.8310   -1.0509    0.1065 C   0  0  0  0  0  0  0  0  0  0  0  0
   -2.1824   -0.4420    0.4775 C   0  0  0  0  0  0  0  0  0  0  0  0
   -3.1281   -0.7427   -0.5483 O   0  0  0  0  0  0  0  0  0  0  0  0
   -4.4529   -0.3161   -0.2367 C   0  0  0  0  0  0  0  0  0  0  0  0
   -4.6293    1.1746   -0.4649 C   0  0  0  0  0  0  0  0  0  2  0  0
    5.9191    0.0067   -1.2458 H   0  0  0  0  0  0  0  0  0  0  0  0
    5.3783    0.8636    0.2186 H   0  0  0  0  0  0  0  0  0  0  0  0
    4.5170    1.0873   -1.3014 H   0  0  0  0  0  0  0  0  0  0  0  0
    3.7439   -1.3010   -1.2392 H   0  0  0  0  0  0  0  0  0  0  0  0
    4.7297   -1.5720    0.1982 H   0  0  0  0  0  0  0  0  0  0  0  0
    2.4075    1.2649   -0.4323 H   0  0  0  0  0  0  0  0  0  0  0  0
    1.7117   -0.2755   -1.0140 H   0  0  0  0  0  0  0  0  0  0  0  0
    0.1712    1.2426    0.4646 H   0  0  0  0  0  0  0  0  0  0  0  0
    1.2442    0.8188    1.8098 H   0  0  0  0  0  0  0  0  0  0  0  0
   -0.9320   -2.1415    0.0692 H   0  0  0  0  0  0  0  0  0  0  0  0
   -0.5205   -0.7388   -0.8974 H   0  0  0  0  0  0  0  0  0  0  0  0
   -2.0865    0.6418    0.5950 H   0  0  0  0  0  0  0  0  0  0  0  0
   -2.5172   -0.8534    1.4372 H   0  0  0  0  0  0  0  0  0  0  0  0
   -4.7196   -0.5976    0.7882 H   0  0  0  0  0  0  0  0  0  0  0  0
   -5.1262   -0.8579   -0.9090 H   0  0  0  0  0  0  0  0  0  0  0  0
   -4.0325    1.7590    0.2415 H   0  0  0  0  0  0  0  0  0  0  0  0
   -5.6780    1.4611   -0.3428 H   0  0  0  0  0  0  0  0  0  0  0  0
   -4.3008    1.4525   -1.4716 H   0  0  0  0  0  0  0  0  0  0  0  0
  1  2  1  0
  2  3  1  0
  3  4  1  0
  4  5  1  0
  5  6  1  0
  6  7  1  0
  7  8  1  0
  8  9  1  0
  9 10  1  0
 10 11  1  0
  1 12  1  0
  1 13  1  0
  1 14  1  0
  2 15  1  0
  2 16  1  0
  4 17  1  0
  4 18  1  0
  5 19  1  0
  5 20  1  0
  7 21  1  0
  7 22  1  0
  8 23  1  0
  8 24  1  0
 10 25  1  0
 10 26  1  0
 11 27  1  0
 11 28  1  0
 11 29  1  0
M  END
>  <anchor_atom_maps>  (73) 
1,2

>  <distance_A>  (73) 
9.709865812401706

>  <Rg_A>  (73) 
3.37898538199447

>  <energy_kcal_mol>  (73) 
51.77040677148977

>  <ensemble>  (73) 
ETKDGv3 unweighted sampling; not a thermodynamic population

$$$$
Flexible PEG synthetic attachment-point proxy 73
     RDKit          3D

 29 28  0  0  0  0  0  0  0  0999 V2000
   -5.3833   -0.2668    0.7363 C   0  0  0  0  0  0  0  0  0  1  0  0
   -4.3678    0.7011    0.1626 C   0  0  0  0  0  0  0  0  0  0  0  0
   -3.1575   -0.0091   -0.0836 O   0  0  0  0  0  0  0  0  0  0  0  0
   -2.1501    0.8387   -0.6460 C   0  0  0  0  0  0  0  0  0  0  0  0
   -0.8463    0.0530   -0.7889 C   0  0  0  0  0  0  0  0  0  0  0  0
   -0.2153   -0.0544    0.4924 O   0  0  0  0  0  0  0  0  0  0  0  0
    0.9196   -0.9203    0.4880 C   0  0  0  0  0  0  0  0  0  0  0  0
    2.1703   -0.2346   -0.0601 C   0  0  0  0  0  0  0  0  0  0  0  0
    3.2711   -1.1406    0.0089 O   0  0  0  0  0  0  0  0  0  0  0  0
    4.4898   -0.5854   -0.4806 C   0  0  0  0  0  0  0  0  0  0  0  0
    5.1618    0.2866    0.5649 C   0  0  0  0  0  0  0  0  0  2  0  0
   -6.3313    0.2382    0.9414 H   0  0  0  0  0  0  0  0  0  0  0  0
   -5.0108   -0.7107    1.6654 H   0  0  0  0  0  0  0  0  0  0  0  0
   -5.5657   -1.0920    0.0399 H   0  0  0  0  0  0  0  0  0  0  0  0
   -4.1829    1.5118    0.8758 H   0  0  0  0  0  0  0  0  0  0  0  0
   -4.7453    1.1255   -0.7742 H   0  0  0  0  0  0  0  0  0  0  0  0
   -1.9999    1.7085    0.0034 H   0  0  0  0  0  0  0  0  0  0  0  0
   -2.4889    1.1689   -1.6340 H   0  0  0  0  0  0  0  0  0  0  0  0
   -0.1761    0.5891   -1.4676 H   0  0  0  0  0  0  0  0  0  0  0  0
   -1.0518   -0.9482   -1.1839 H   0  0  0  0  0  0  0  0  0  0  0  0
    0.7041   -1.8487   -0.0547 H   0  0  0  0  0  0  0  0  0  0  0  0
    1.1066   -1.2160    1.5268 H   0  0  0  0  0  0  0  0  0  0  0  0
    2.0136    0.0682   -1.1009 H   0  0  0  0  0  0  0  0  0  0  0  0
    2.3736    0.6693    0.5240 H   0  0  0  0  0  0  0  0  0  0  0  0
    4.3196   -0.0336   -1.4119 H   0  0  0  0  0  0  0  0  0  0  0  0
    5.1501   -1.4268   -0.7154 H   0  0  0  0  0  0  0  0  0  0  0  0
    4.5670    1.1785    0.7826 H   0  0  0  0  0  0  0  0  0  0  0  0
    5.2776   -0.2602    1.5064 H   0  0  0  0  0  0  0  0  0  0  0  0
    6.1482    0.6102    0.2201 H   0  0  0  0  0  0  0  0  0  0  0  0
  1  2  1  0
  2  3  1  0
  3  4  1  0
  4  5  1  0
  5  6  1  0
  6  7  1  0
  7  8  1  0
  8  9  1  0
  9 10  1  0
 10 11  1  0
  1 12  1  0
  1 13  1  0
  1 14  1  0
  2 15  1  0
  2 16  1  0
  4 17  1  0
  4 18  1  0
  5 19  1  0
  5 20  1  0
  7 21  1  0
  7 22  1  0
  8 23  1  0
  8 24  1  0
 10 25  1  0
 10 26  1  0
 11 27  1  0
 11 28  1  0
 11 29  1  0
M  END
>  <anchor_atom_maps>  (74) 
1,2

>  <distance_A>  (74) 
10.561050051424724

>  <Rg_A>  (74) 
3.5267396164153566

>  <energy_kcal_mol>  (74) 
48.63973519001408

>  <ensemble>  (74) 
ETKDGv3 unweighted sampling; not a thermodynamic population

$$$$
Flexible PEG synthetic attachment-point proxy 74
     RDKit          3D

 29 28  0  0  0  0  0  0  0  0999 V2000
    4.2416   -0.6937   -1.1476 C   0  0  0  0  0  0  0  0  0  1  0  0
    3.9130   -0.7843    0.3320 C   0  0  0  0  0  0  0  0  0  0  0  0
    3.2136    0.3738    0.7831 O   0  0  0  0  0  0  0  0  0  0  0  0
    1.8181    0.3390    0.4821 C   0  0  0  0  0  0  0  0  0  0  0  0
    1.1609    1.6140    1.0089 C   0  0  0  0  0  0  0  0  0  0  0  0
   -0.2383    1.6346    0.7305 O   0  0  0  0  0  0  0  0  0  0  0  0
   -1.0136    0.9876    1.7463 C   0  0  0  0  0  0  0  0  0  0  0  0
   -2.4547    0.8390    1.2619 C   0  0  0  0  0  0  0  0  0  0  0  0
   -2.5278   -0.2479    0.3311 O   0  0  0  0  0  0  0  0  0  0  0  0
   -3.8323   -0.3740   -0.2283 C   0  0  0  0  0  0  0  0  0  0  0  0
   -3.8319   -1.5509   -1.1835 C   0  0  0  0  0  0  0  0  0  2  0  0
    4.7589    0.2450   -1.3708 H   0  0  0  0  0  0  0  0  0  0  0  0
    4.8778   -1.5296   -1.4525 H   0  0  0  0  0  0  0  0  0  0  0  0
    3.3350   -0.7142   -1.7594 H   0  0  0  0  0  0  0  0  0  0  0  0
    4.8488   -0.8303    0.8987 H   0  0  0  0  0  0  0  0  0  0  0  0
    3.3474   -1.6945    0.5610 H   0  0  0  0  0  0  0  0  0  0  0  0
    1.3647   -0.5442    0.9449 H   0  0  0  0  0  0  0  0  0  0  0  0
    1.6558    0.2684   -0.5987 H   0  0  0  0  0  0  0  0  0  0  0  0
    1.3551    1.7523    2.0798 H   0  0  0  0  0  0  0  0  0  0  0  0
    1.6093    2.4773    0.5041 H   0  0  0  0  0  0  0  0  0  0  0  0
   -0.9894    1.6155    2.6433 H   0  0  0  0  0  0  0  0  0  0  0  0
   -0.5922    0.0036    1.9764 H   0  0  0  0  0  0  0  0  0  0  0  0
   -2.7897    1.7612    0.7739 H   0  0  0  0  0  0  0  0  0  0  0  0
   -3.1068    0.6114    2.1121 H   0  0  0  0  0  0  0  0  0  0  0  0
   -4.5631   -0.5423    0.5703 H   0  0  0  0  0  0  0  0  0  0  0  0
   -4.0939    0.5427   -0.7681 H   0  0  0  0  0  0  0  0  0  0  0  0
   -3.0932   -1.4023   -1.9780 H   0  0  0  0  0  0  0  0  0  0  0  0
   -3.5556   -2.4722   -0.6600 H   0  0  0  0  0  0  0  0  0  0  0  0
   -4.8174   -1.6850   -1.6380 H   0  0  0  0  0  0  0  0  0  0  0  0
  1  2  1  0
  2  3  1  0
  3  4  1  0
  4  5  1  0
  5  6  1  0
  6  7  1  0
  7  8  1  0
  8  9  1  0
  9 10  1  0
 10 11  1  0
  1 12  1  0
  1 13  1  0
  1 14  1  0
  2 15  1  0
  2 16  1  0
  4 17  1  0
  4 18  1  0
  5 19  1  0
  5 20  1  0
  7 21  1  0
  7 22  1  0
  8 23  1  0
  8 24  1  0
 10 25  1  0
 10 26  1  0
 11 27  1  0
 11 28  1  0
 11 29  1  0
M  END
>  <anchor_atom_maps>  (75) 
1,2

>  <distance_A>  (75) 
8.118929795772832

>  <Rg_A>  (75) 
3.2167001098067196

>  <energy_kcal_mol>  (75) 
47.755013131520045

>  <ensemble>  (75) 
ETKDGv3 unweighted sampling; not a thermodynamic population

$$$$
Flexible PEG synthetic attachment-point proxy 75
     RDKit          3D

 29 28  0  0  0  0  0  0  0  0999 V2000
    5.2484   -0.1881   -0.0948 C   0  0  0  0  0  0  0  0  0  1  0  0
    4.0475   -1.1159   -0.0419 C   0  0  0  0  0  0  0  0  0  0  0  0
    3.0173   -0.6576   -0.9154 O   0  0  0  0  0  0  0  0  0  0  0  0
    2.1566    0.3222   -0.3341 C   0  0  0  0  0  0  0  0  0  0  0  0
    1.0014   -0.3355    0.4249 C   0  0  0  0  0  0  0  0  0  0  0  0
    0.1491    0.6378    1.0289 O   0  0  0  0  0  0  0  0  0  0  0  0
   -0.8635    1.1384    0.1547 C   0  0  0  0  0  0  0  0  0  0  0  0
   -2.1069    0.2498    0.1709 C   0  0  0  0  0  0  0  0  0  0  0  0
   -3.0877    0.8037   -0.7052 O   0  0  0  0  0  0  0  0  0  0  0  0
   -4.2820    0.0276   -0.7765 C   0  0  0  0  0  0  0  0  0  0  0  0
   -5.1921    0.2967    0.4086 C   0  0  0  0  0  0  0  0  0  2  0  0
    4.9968    0.8108    0.2738 H   0  0  0  0  0  0  0  0  0  0  0  0
    6.0687   -0.5835    0.5111 H   0  0  0  0  0  0  0  0  0  0  0  0
    5.5967   -0.0690   -1.1260 H   0  0  0  0  0  0  0  0  0  0  0  0
    4.3497   -2.1069   -0.3958 H   0  0  0  0  0  0  0  0  0  0  0  0
    3.6806   -1.2309    0.9834 H   0  0  0  0  0  0  0  0  0  0  0  0
    1.7579    0.9255   -1.1560 H   0  0  0  0  0  0  0  0  0  0  0  0
    2.7064    1.0158    0.3121 H   0  0  0  0  0  0  0  0  0  0  0  0
    1.4021   -0.9546    1.2342 H   0  0  0  0  0  0  0  0  0  0  0  0
    0.4411   -1.0160   -0.2265 H   0  0  0  0  0  0  0  0  0  0  0  0
   -1.1388    2.1375    0.5116 H   0  0  0  0  0  0  0  0  0  0  0  0
   -0.4875    1.2736   -0.8658 H   0  0  0  0  0  0  0  0  0  0  0  0
   -2.4930    0.1858    1.1939 H   0  0  0  0  0  0  0  0  0  0  0  0
   -1.8534   -0.7654   -0.1534 H   0  0  0  0  0  0  0  0  0  0  0  0
   -4.7999    0.3263   -1.6939 H   0  0  0  0  0  0  0  0  0  0  0  0
   -4.0476   -1.0391   -0.8663 H   0  0  0  0  0  0  0  0  0  0  0  0
   -4.7432   -0.0520    1.3433 H   0  0  0  0  0  0  0  0  0  0  0  0
   -6.1517   -0.2125    0.2805 H   0  0  0  0  0  0  0  0  0  0  0  0
   -5.3730    1.3708    0.5198 H   0  0  0  0  0  0  0  0  0  0  0  0
  1  2  1  0
  2  3  1  0
  3  4  1  0
  4  5  1  0
  5  6  1  0
  6  7  1  0
  7  8  1  0
  8  9  1  0
  9 10  1  0
 10 11  1  0
  1 12  1  0
  1 13  1  0
  1 14  1  0
  2 15  1  0
  2 16  1  0
  4 17  1  0
  4 18  1  0
  5 19  1  0
  5 20  1  0
  7 21  1  0
  7 22  1  0
  8 23  1  0
  8 24  1  0
 10 25  1  0
 10 26  1  0
 11 27  1  0
 11 28  1  0
 11 29  1  0
M  END
>  <anchor_atom_maps>  (76) 
1,2

>  <distance_A>  (76) 
10.463835855774343

>  <Rg_A>  (76) 
3.44382347551229

>  <energy_kcal_mol>  (76) 
50.67305556663135

>  <ensemble>  (76) 
ETKDGv3 unweighted sampling; not a thermodynamic population

$$$$
Flexible PEG synthetic attachment-point proxy 76
     RDKit          3D

 29 28  0  0  0  0  0  0  0  0999 V2000
    5.4582   -0.2888    0.2176 C   0  0  0  0  0  0  0  0  0  1  0  0
    4.0063   -0.7258    0.2237 C   0  0  0  0  0  0  0  0  0  0  0  0
    3.3275   -0.0363   -0.8236 O   0  0  0  0  0  0  0  0  0  0  0  0
    1.9545   -0.4100   -0.9426 C   0  0  0  0  0  0  0  0  0  0  0  0
    1.0655    0.3180    0.0678 C   0  0  0  0  0  0  0  0  0  0  0  0
   -0.3072   -0.0546   -0.0542 O   0  0  0  0  0  0  0  0  0  0  0  0
   -0.9819    0.6237   -1.1207 C   0  0  0  0  0  0  0  0  0  0  0  0
   -2.4768    0.3081   -1.0539 C   0  0  0  0  0  0  0  0  0  0  0  0
   -3.0759    1.0755   -0.0041 O   0  0  0  0  0  0  0  0  0  0  0  0
   -4.4568    0.7812    0.1886 C   0  0  0  0  0  0  0  0  0  0  0  0
   -4.6401   -0.4421    1.0690 C   0  0  0  0  0  0  0  0  0  2  0  0
    6.0217   -0.7960    1.0057 H   0  0  0  0  0  0  0  0  0  0  0  0
    5.5357    0.7931    0.3678 H   0  0  0  0  0  0  0  0  0  0  0  0
    5.9237   -0.5106   -0.7484 H   0  0  0  0  0  0  0  0  0  0  0  0
    3.9451   -1.8067    0.0568 H   0  0  0  0  0  0  0  0  0  0  0  0
    3.5558   -0.4851    1.1914 H   0  0  0  0  0  0  0  0  0  0  0  0
    1.8341   -1.4974   -0.8646 H   0  0  0  0  0  0  0  0  0  0  0  0
    1.6452   -0.1445   -1.9585 H   0  0  0  0  0  0  0  0  0  0  0  0
    1.3726    0.0515    1.0840 H   0  0  0  0  0  0  0  0  0  0  0  0
    1.1878    1.4053   -0.0078 H   0  0  0  0  0  0  0  0  0  0  0  0
   -0.5818    0.2680   -2.0749 H   0  0  0  0  0  0  0  0  0  0  0  0
   -0.8212    1.7038   -1.0300 H   0  0  0  0  0  0  0  0  0  0  0  0
   -2.6259   -0.7607   -0.8710 H   0  0  0  0  0  0  0  0  0  0  0  0
   -2.9511    0.5896   -2.0003 H   0  0  0  0  0  0  0  0  0  0  0  0
   -4.9688    0.6624   -0.7730 H   0  0  0  0  0  0  0  0  0  0  0  0
   -4.9002    1.6472    0.6910 H   0  0  0  0  0  0  0  0  0  0  0  0
   -4.0881   -0.3270    2.0076 H   0  0  0  0  0  0  0  0  0  0  0  0
   -5.6985   -0.5968    1.2981 H   0  0  0  0  0  0  0  0  0  0  0  0
   -4.2596   -1.3449    0.5825 H   0  0  0  0  0  0  0  0  0  0  0  0
  1  2  1  0
  2  3  1  0
  3  4  1  0
  4  5  1  0
  5  6  1  0
  6  7  1  0
  7  8  1  0
  8  9  1  0
  9 10  1  0
 10 11  1  0
  1 12  1  0
  1 13  1  0
  1 14  1  0
  2 15  1  0
  2 16  1  0
  4 17  1  0
  4 18  1  0
  5 19  1  0
  5 20  1  0
  7 21  1  0
  7 22  1  0
  8 23  1  0
  8 24  1  0
 10 25  1  0
 10 26  1  0
 11 27  1  0
 11 28  1  0
 11 29  1  0
M  END
>  <anchor_atom_maps>  (77) 
1,2

>  <distance_A>  (77) 
10.135353377002948

>  <Rg_A>  (77) 
3.461577676672392

>  <energy_kcal_mol>  (77) 
49.76964123641081

>  <ensemble>  (77) 
ETKDGv3 unweighted sampling; not a thermodynamic population

$$$$
Flexible PEG synthetic attachment-point proxy 77
     RDKit          3D

 29 28  0  0  0  0  0  0  0  0999 V2000
    3.6819    1.7332    0.1857 C   0  0  0  0  0  0  0  0  0  1  0  0
    3.9121    0.5019    1.0437 C   0  0  0  0  0  0  0  0  0  0  0  0
    2.7281   -0.2843    1.1419 O   0  0  0  0  0  0  0  0  0  0  0  0
    2.5523   -1.1800    0.0393 C   0  0  0  0  0  0  0  0  0  0  0  0
    1.1965   -1.8756    0.1599 C   0  0  0  0  0  0  0  0  0  0  0  0
    0.1635   -0.9881   -0.2830 O   0  0  0  0  0  0  0  0  0  0  0  0
   -1.1344   -1.5768   -0.1431 C   0  0  0  0  0  0  0  0  0  0  0  0
   -2.2005   -0.5692   -0.5744 C   0  0  0  0  0  0  0  0  0  0  0  0
   -2.4158    0.3751    0.4795 O   0  0  0  0  0  0  0  0  0  0  0  0
   -3.2009    1.4975    0.0872 C   0  0  0  0  0  0  0  0  0  0  0  0
   -4.6707    1.1418   -0.0486 C   0  0  0  0  0  0  0  0  0  2  0  0
    4.5623    2.3822    0.1988 H   0  0  0  0  0  0  0  0  0  0  0  0
    3.4708    1.4624   -0.8529 H   0  0  0  0  0  0  0  0  0  0  0  0
    2.8190    2.3002    0.5502 H   0  0  0  0  0  0  0  0  0  0  0  0
    4.7492   -0.0971    0.6676 H   0  0  0  0  0  0  0  0  0  0  0  0
    4.1680    0.8220    2.0590 H   0  0  0  0  0  0  0  0  0  0  0  0
    3.3505   -1.9291    0.0786 H   0  0  0  0  0  0  0  0  0  0  0  0
    2.6098   -0.6319   -0.9064 H   0  0  0  0  0  0  0  0  0  0  0  0
    1.1851   -2.7648   -0.4799 H   0  0  0  0  0  0  0  0  0  0  0  0
    1.0077   -2.1654    1.1996 H   0  0  0  0  0  0  0  0  0  0  0  0
   -1.2902   -1.8734    0.9002 H   0  0  0  0  0  0  0  0  0  0  0  0
   -1.1841   -2.4594   -0.7900 H   0  0  0  0  0  0  0  0  0  0  0  0
   -3.1388   -1.0999   -0.7631 H   0  0  0  0  0  0  0  0  0  0  0  0
   -1.8798   -0.0471   -1.4829 H   0  0  0  0  0  0  0  0  0  0  0  0
   -3.0911    2.2510    0.8741 H   0  0  0  0  0  0  0  0  0  0  0  0
   -2.8101    1.9355   -0.8380 H   0  0  0  0  0  0  0  0  0  0  0  0
   -4.8375    0.4557   -0.8844 H   0  0  0  0  0  0  0  0  0  0  0  0
   -5.0328    0.6430    0.8562 H   0  0  0  0  0  0  0  0  0  0  0  0
   -5.2698    2.0405   -0.2220 H   0  0  0  0  0  0  0  0  0  0  0  0
  1  2  1  0
  2  3  1  0
  3  4  1  0
  4  5  1  0
  5  6  1  0
  6  7  1  0
  7  8  1  0
  8  9  1  0
  9 10  1  0
 10 11  1  0
  1 12  1  0
  1 13  1  0
  1 14  1  0
  2 15  1  0
  2 16  1  0
  4 17  1  0
  4 18  1  0
  5 19  1  0
  5 20  1  0
  7 21  1  0
  7 22  1  0
  8 23  1  0
  8 24  1  0
 10 25  1  0
 10 26  1  0
 11 27  1  0
 11 28  1  0
 11 29  1  0
M  END
>  <anchor_atom_maps>  (78) 
1,2

>  <distance_A>  (78) 
8.376755445875439

>  <Rg_A>  (78) 
3.1670357861265837

>  <energy_kcal_mol>  (78) 
50.95235281704734

>  <ensemble>  (78) 
ETKDGv3 unweighted sampling; not a thermodynamic population

$$$$
Flexible PEG synthetic attachment-point proxy 78
     RDKit          3D

 29 28  0  0  0  0  0  0  0  0999 V2000
    5.3096    0.2499   -0.3107 C   0  0  0  0  0  0  0  0  0  1  0  0
    4.1748    1.1075    0.2203 C   0  0  0  0  0  0  0  0  0  0  0  0
    3.0168    0.3315    0.5172 O   0  0  0  0  0  0  0  0  0  0  0  0
    2.2856   -0.0706   -0.6461 C   0  0  0  0  0  0  0  0  0  0  0  0
    0.9551   -0.6906   -0.2159 C   0  0  0  0  0  0  0  0  0  0  0  0
    0.0487    0.3515    0.1652 O   0  0  0  0  0  0  0  0  0  0  0  0
   -1.1539   -0.1394    0.7571 C   0  0  0  0  0  0  0  0  0  0  0  0
   -2.1484   -0.6521   -0.2870 C   0  0  0  0  0  0  0  0  0  0  0  0
   -3.3643   -1.0911    0.3191 O   0  0  0  0  0  0  0  0  0  0  0  0
   -4.3173   -0.0509    0.5294 C   0  0  0  0  0  0  0  0  0  0  0  0
   -5.1512    0.1734   -0.7197 C   0  0  0  0  0  0  0  0  0  2  0  0
    5.0672   -0.1657   -1.2934 H   0  0  0  0  0  0  0  0  0  0  0  0
    5.5016   -0.5947    0.3588 H   0  0  0  0  0  0  0  0  0  0  0  0
    6.2253    0.8404   -0.4081 H   0  0  0  0  0  0  0  0  0  0  0  0
    4.4933    1.5724    1.1592 H   0  0  0  0  0  0  0  0  0  0  0  0
    3.9279    1.9172   -0.4755 H   0  0  0  0  0  0  0  0  0  0  0  0
    2.8708   -0.8193   -1.1888 H   0  0  0  0  0  0  0  0  0  0  0  0
    2.1057    0.7984   -1.2888 H   0  0  0  0  0  0  0  0  0  0  0  0
    0.5257   -1.2402   -1.0589 H   0  0  0  0  0  0  0  0  0  0  0  0
    1.1126   -1.3698    0.6294 H   0  0  0  0  0  0  0  0  0  0  0  0
   -0.9368   -0.9095    1.5073 H   0  0  0  0  0  0  0  0  0  0  0  0
   -1.5993    0.6957    1.3076 H   0  0  0  0  0  0  0  0  0  0  0  0
   -2.3293    0.1021   -1.0612 H   0  0  0  0  0  0  0  0  0  0  0  0
   -1.7221   -1.5194   -0.8010 H   0  0  0  0  0  0  0  0  0  0  0  0
   -4.9756   -0.3794    1.3403 H   0  0  0  0  0  0  0  0  0  0  0  0
   -3.8338    0.8763    0.8538 H   0  0  0  0  0  0  0  0  0  0  0  0
   -4.5352    0.5276   -1.5516 H   0  0  0  0  0  0  0  0  0  0  0  0
   -5.6171   -0.7630   -1.0439 H   0  0  0  0  0  0  0  0  0  0  0  0
   -5.9363    0.9116   -0.5324 H   0  0  0  0  0  0  0  0  0  0  0  0
  1  2  1  0
  2  3  1  0
  3  4  1  0
  4  5  1  0
  5  6  1  0
  6  7  1  0
  7  8  1  0
  8  9  1  0
  9 10  1  0
 10 11  1  0
  1 12  1  0
  1 13  1  0
  1 14  1  0
  2 15  1  0
  2 16  1  0
  4 17  1  0
  4 18  1  0
  5 19  1  0
  5 20  1  0
  7 21  1  0
  7 22  1  0
  8 23  1  0
  8 24  1  0
 10 25  1  0
 10 26  1  0
 11 27  1  0
 11 28  1  0
 11 29  1  0
M  END
>  <anchor_atom_maps>  (79) 
1,2

>  <distance_A>  (79) 
10.469022160235149

>  <Rg_A>  (79) 
3.481941082543568

>  <energy_kcal_mol>  (79) 
51.20841434552173

>  <ensemble>  (79) 
ETKDGv3 unweighted sampling; not a thermodynamic population

$$$$
Flexible PEG synthetic attachment-point proxy 79
     RDKit          3D

 29 28  0  0  0  0  0  0  0  0999 V2000
   -5.2098   -0.0569   -0.2281 C   0  0  0  0  0  0  0  0  0  1  0  0
   -4.2360    0.8556    0.4958 C   0  0  0  0  0  0  0  0  0  0  0  0
   -3.0606    1.0850   -0.2786 O   0  0  0  0  0  0  0  0  0  0  0  0
   -2.1162    0.0182   -0.1994 C   0  0  0  0  0  0  0  0  0  0  0  0
   -0.8893    0.3735   -1.0389 C   0  0  0  0  0  0  0  0  0  0  0  0
    0.0860   -0.6696   -1.0080 O   0  0  0  0  0  0  0  0  0  0  0  0
    0.9849   -0.5847    0.0980 C   0  0  0  0  0  0  0  0  0  0  0  0
    2.1656    0.3405   -0.2067 C   0  0  0  0  0  0  0  0  0  0  0  0
    3.0719    0.4018    0.8949 O   0  0  0  0  0  0  0  0  0  0  0  0
    4.0641   -0.6228    0.8872 C   0  0  0  0  0  0  0  0  0  0  0  0
    5.2495   -0.2158    0.0301 C   0  0  0  0  0  0  0  0  0  2  0  0
   -5.4149    0.3195   -1.2355 H   0  0  0  0  0  0  0  0  0  0  0  0
   -6.1527   -0.1276    0.3221 H   0  0  0  0  0  0  0  0  0  0  0  0
   -4.8032   -1.0664   -0.3388 H   0  0  0  0  0  0  0  0  0  0  0  0
   -4.7116    1.8304    0.6465 H   0  0  0  0  0  0  0  0  0  0  0  0
   -3.9786    0.4612    1.4852 H   0  0  0  0  0  0  0  0  0  0  0  0
   -1.8287   -0.1437    0.8452 H   0  0  0  0  0  0  0  0  0  0  0  0
   -2.5527   -0.9143   -0.5729 H   0  0  0  0  0  0  0  0  0  0  0  0
   -0.4642    1.3353   -0.7301 H   0  0  0  0  0  0  0  0  0  0  0  0
   -1.2000    0.4999   -2.0823 H   0  0  0  0  0  0  0  0  0  0  0  0
    0.4705   -0.2754    1.0151 H   0  0  0  0  0  0  0  0  0  0  0  0
    1.3546   -1.5979    0.2868 H   0  0  0  0  0  0  0  0  0  0  0  0
    2.6694    0.0420   -1.1330 H   0  0  0  0  0  0  0  0  0  0  0  0
    1.7988    1.3581   -0.3760 H   0  0  0  0  0  0  0  0  0  0  0  0
    3.6474   -1.5805    0.5579 H   0  0  0  0  0  0  0  0  0  0  0  0
    4.4014   -0.7494    1.9211 H   0  0  0  0  0  0  0  0  0  0  0  0
    6.0447   -0.9644    0.0904 H   0  0  0  0  0  0  0  0  0  0  0  0
    5.6478    0.7497    0.3590 H   0  0  0  0  0  0  0  0  0  0  0  0
    4.9619   -0.1010   -1.0192 H   0  0  0  0  0  0  0  0  0  0  0  0
  1  2  1  0
  2  3  1  0
  3  4  1  0
  4  5  1  0
  5  6  1  0
  6  7  1  0
  7  8  1  0
  8  9  1  0
  9 10  1  0
 10 11  1  0
  1 12  1  0
  1 13  1  0
  1 14  1  0
  2 15  1  0
  2 16  1  0
  4 17  1  0
  4 18  1  0
  5 19  1  0
  5 20  1  0
  7 21  1  0
  7 22  1  0
  8 23  1  0
  8 24  1  0
 10 25  1  0
 10 26  1  0
 11 27  1  0
 11 28  1  0
 11 29  1  0
M  END
>  <anchor_atom_maps>  (80) 
1,2

>  <distance_A>  (80) 
10.463782504431698

>  <Rg_A>  (80) 
3.4438219474804344

>  <energy_kcal_mol>  (80) 
50.673055426319806

>  <ensemble>  (80) 
ETKDGv3 unweighted sampling; not a thermodynamic population

$$$$
Flexible PEG synthetic attachment-point proxy 80
     RDKit          3D

 29 28  0  0  0  0  0  0  0  0999 V2000
   -5.0574    0.4816   -0.5679 C   0  0  0  0  0  0  0  0  0  1  0  0
   -3.5853    0.7875   -0.3727 C   0  0  0  0  0  0  0  0  0  0  0  0
   -3.2733    0.6244    1.0089 O   0  0  0  0  0  0  0  0  0  0  0  0
   -1.9020    0.8941    1.3033 C   0  0  0  0  0  0  0  0  0  0  0  0
   -1.0205   -0.3313    1.0716 C   0  0  0  0  0  0  0  0  0  0  0  0
    0.3298   -0.0087    1.3986 O   0  0  0  0  0  0  0  0  0  0  0  0
    1.1972   -1.1371    1.2537 C   0  0  0  0  0  0  0  0  0  0  0  0
    2.6407   -0.7181    1.5475 C   0  0  0  0  0  0  0  0  0  0  0  0
    3.1770    0.1653    0.5565 O   0  0  0  0  0  0  0  0  0  0  0  0
    3.6147   -0.5007   -0.6236 C   0  0  0  0  0  0  0  0  0  0  0  0
    4.2069    0.5334   -1.5613 C   0  0  0  0  0  0  0  0  0  2  0  0
   -5.2837   -0.5417   -0.2508 H   0  0  0  0  0  0  0  0  0  0  0  0
   -5.6743    1.1486    0.0434 H   0  0  0  0  0  0  0  0  0  0  0  0
   -5.3444    0.5979   -1.6167 H   0  0  0  0  0  0  0  0  0  0  0  0
   -2.9839    0.1049   -0.9811 H   0  0  0  0  0  0  0  0  0  0  0  0
   -3.3784    1.8188   -0.6788 H   0  0  0  0  0  0  0  0  0  0  0  0
   -1.5379    1.7611    0.7385 H   0  0  0  0  0  0  0  0  0  0  0  0
   -1.8441    1.1757    2.3609 H   0  0  0  0  0  0  0  0  0  0  0  0
   -1.0766   -0.6521    0.0258 H   0  0  0  0  0  0  0  0  0  0  0  0
   -1.3729   -1.1621    1.6946 H   0  0  0  0  0  0  0  0  0  0  0  0
    1.1022   -1.5362    0.2393 H   0  0  0  0  0  0  0  0  0  0  0  0
    0.8923   -1.9067    1.9715 H   0  0  0  0  0  0  0  0  0  0  0  0
    3.2874   -1.5969    1.6489 H   0  0  0  0  0  0  0  0  0  0  0  0
    2.6691   -0.1696    2.4951 H   0  0  0  0  0  0  0  0  0  0  0  0
    2.7740   -0.9994   -1.1147 H   0  0  0  0  0  0  0  0  0  0  0  0
    4.3755   -1.2463   -0.3685 H   0  0  0  0  0  0  0  0  0  0  0  0
    4.5613    0.0658   -2.4842 H   0  0  0  0  0  0  0  0  0  0  0  0
    5.0445    1.0525   -1.0837 H   0  0  0  0  0  0  0  0  0  0  0  0
    3.4623    1.2954   -1.8144 H   0  0  0  0  0  0  0  0  0  0  0  0
  1  2  1  0
  2  3  1  0
  3  4  1  0
  4  5  1  0
  5  6  1  0
  6  7  1  0
  7  8  1  0
  8  9  1  0
  9 10  1  0
 10 11  1  0
  1 12  1  0
  1 13  1  0
  1 14  1  0
  2 15  1  0
  2 16  1  0
  4 17  1  0
  4 18  1  0
  5 19  1  0
  5 20  1  0
  7 21  1  0
  7 22  1  0
  8 23  1  0
  8 24  1  0
 10 25  1  0
 10 26  1  0
 11 27  1  0
 11 28  1  0
 11 29  1  0
M  END
>  <anchor_atom_maps>  (81) 
1,2

>  <distance_A>  (81) 
9.317526193028128

>  <Rg_A>  (81) 
3.337795582697272

>  <energy_kcal_mol>  (81) 
48.79298713411022

>  <ensemble>  (81) 
ETKDGv3 unweighted sampling; not a thermodynamic population

$$$$
Flexible PEG synthetic attachment-point proxy 81
     RDKit          3D

 29 28  0  0  0  0  0  0  0  0999 V2000
    4.7882   -0.0347    0.6142 C   0  0  0  0  0  0  0  0  0  1  0  0
    3.6306   -0.9385    0.2293 C   0  0  0  0  0  0  0  0  0  0  0  0
    3.1285   -0.6675   -1.0743 O   0  0  0  0  0  0  0  0  0  0  0  0
    2.5148    0.6085   -1.2733 C   0  0  0  0  0  0  0  0  0  0  0  0
    1.2774    0.8724   -0.4096 C   0  0  0  0  0  0  0  0  0  0  0  0
    0.2645   -0.0925   -0.7019 O   0  0  0  0  0  0  0  0  0  0  0  0
   -0.9060    0.1099    0.0877 C   0  0  0  0  0  0  0  0  0  0  0  0
   -1.9215   -0.9871   -0.2249 C   0  0  0  0  0  0  0  0  0  0  0  0
   -3.1127   -0.8430    0.5497 O   0  0  0  0  0  0  0  0  0  0  0  0
   -4.0526    0.0520   -0.0401 C   0  0  0  0  0  0  0  0  0  0  0  0
   -5.2706    0.1248    0.8598 C   0  0  0  0  0  0  0  0  0  2  0  0
    5.5481   -0.0205   -0.1736 H   0  0  0  0  0  0  0  0  0  0  0  0
    5.2491   -0.3766    1.5457 H   0  0  0  0  0  0  0  0  0  0  0  0
    4.4538    0.9964    0.7634 H   0  0  0  0  0  0  0  0  0  0  0  0
    2.8286   -0.8988    0.9723 H   0  0  0  0  0  0  0  0  0  0  0  0
    3.9880   -1.9739    0.2138 H   0  0  0  0  0  0  0  0  0  0  0  0
    3.2576    1.4001   -1.1328 H   0  0  0  0  0  0  0  0  0  0  0  0
    2.2170    0.6331   -2.3275 H   0  0  0  0  0  0  0  0  0  0  0  0
    1.5254    0.8275    0.6553 H   0  0  0  0  0  0  0  0  0  0  0  0
    0.8915    1.8732   -0.6348 H   0  0  0  0  0  0  0  0  0  0  0  0
   -1.3265    1.0976   -0.1298 H   0  0  0  0  0  0  0  0  0  0  0  0
   -0.6533    0.0828    1.1544 H   0  0  0  0  0  0  0  0  0  0  0  0
   -2.1482   -1.0284   -1.2973 H   0  0  0  0  0  0  0  0  0  0  0  0
   -1.4815   -1.9582    0.0293 H   0  0  0  0  0  0  0  0  0  0  0  0
   -3.6132    1.0488   -0.1459 H   0  0  0  0  0  0  0  0  0  0  0  0
   -4.3451   -0.3185   -1.0287 H   0  0  0  0  0  0  0  0  0  0  0  0
   -4.9917    0.4785    1.8579 H   0  0  0  0  0  0  0  0  0  0  0  0
   -6.0235    0.8000    0.4436 H   0  0  0  0  0  0  0  0  0  0  0  0
   -5.7167   -0.8672    0.9863 H   0  0  0  0  0  0  0  0  0  0  0  0
  1  2  1  0
  2  3  1  0
  3  4  1  0
  4  5  1  0
  5  6  1  0
  6  7  1  0
  7  8  1  0
  8  9  1  0
  9 10  1  0
 10 11  1  0
  1 12  1  0
  1 13  1  0
  1 14  1  0
  2 15  1  0
  2 16  1  0
  4 17  1  0
  4 18  1  0
  5 19  1  0
  5 20  1  0
  7 21  1  0
  7 22  1  0
  8 23  1  0
  8 24  1  0
 10 25  1  0
 10 26  1  0
 11 27  1  0
 11 28  1  0
 11 29  1  0
M  END
>  <anchor_atom_maps>  (82) 
1,2

>  <distance_A>  (82) 
10.063051292545579

>  <Rg_A>  (82) 
3.369750674842097

>  <energy_kcal_mol>  (82) 
50.67287147131394

>  <ensemble>  (82) 
ETKDGv3 unweighted sampling; not a thermodynamic population

$$$$
Flexible PEG synthetic attachment-point proxy 82
     RDKit          3D

 29 28  0  0  0  0  0  0  0  0999 V2000
    5.2636    0.5773    0.1794 C   0  0  0  0  0  0  0  0  0  1  0  0
    4.1198   -0.1259   -0.5248 C   0  0  0  0  0  0  0  0  0  0  0  0
    3.2218   -0.6221    0.4652 O   0  0  0  0  0  0  0  0  0  0  0  0
    2.1091   -1.3216   -0.0926 C   0  0  0  0  0  0  0  0  0  0  0  0
    0.9897   -0.3707   -0.5136 C   0  0  0  0  0  0  0  0  0  0  0  0
   -0.1084   -1.1322   -1.0159 O   0  0  0  0  0  0  0  0  0  0  0  0
   -1.2119   -0.3182   -1.4156 C   0  0  0  0  0  0  0  0  0  0  0  0
   -2.1108    0.0500   -0.2358 C   0  0  0  0  0  0  0  0  0  0  0  0
   -3.2059    0.8327   -0.7106 O   0  0  0  0  0  0  0  0  0  0  0  0
   -4.1010    1.2345    0.3244 C   0  0  0  0  0  0  0  0  0  0  0  0
   -5.0667    0.1206    0.6874 C   0  0  0  0  0  0  0  0  0  2  0  0
    5.7831   -0.1114    0.8539 H   0  0  0  0  0  0  0  0  0  0  0  0
    5.9826    0.9731   -0.5433 H   0  0  0  0  0  0  0  0  0  0  0  0
    4.8888    1.4028    0.7936 H   0  0  0  0  0  0  0  0  0  0  0  0
    3.6054    0.5796   -1.1846 H   0  0  0  0  0  0  0  0  0  0  0  0
    4.5089   -0.9581   -1.1215 H   0  0  0  0  0  0  0  0  0  0  0  0
    1.7264   -1.9957    0.6822 H   0  0  0  0  0  0  0  0  0  0  0  0
    2.4220   -1.9636   -0.9251 H   0  0  0  0  0  0  0  0  0  0  0  0
    1.3442    0.3144   -1.2912 H   0  0  0  0  0  0  0  0  0  0  0  0
    0.6818    0.2327    0.3471 H   0  0  0  0  0  0  0  0  0  0  0  0
   -1.7984   -0.8969   -2.1385 H   0  0  0  0  0  0  0  0  0  0  0  0
   -0.8695    0.5761   -1.9507 H   0  0  0  0  0  0  0  0  0  0  0  0
   -2.4684   -0.8658    0.2469 H   0  0  0  0  0  0  0  0  0  0  0  0
   -1.5481    0.6223    0.5092 H   0  0  0  0  0  0  0  0  0  0  0  0
   -4.6726    2.0845   -0.0629 H   0  0  0  0  0  0  0  0  0  0  0  0
   -3.5476    1.5858    1.2026 H   0  0  0  0  0  0  0  0  0  0  0  0
   -5.5727   -0.2576   -0.2068 H   0  0  0  0  0  0  0  0  0  0  0  0
   -5.8197    0.4792    1.3952 H   0  0  0  0  0  0  0  0  0  0  0  0
   -4.5455   -0.7260    1.1438 H   0  0  0  0  0  0  0  0  0  0  0  0
  1  2  1  0
  2  3  1  0
  3  4  1  0
  4  5  1  0
  5  6  1  0
  6  7  1  0
  7  8  1  0
  8  9  1  0
  9 10  1  0
 10 11  1  0
  1 12  1  0
  1 13  1  0
  1 14  1  0
  2 15  1  0
  2 16  1  0
  4 17  1  0
  4 18  1  0
  5 19  1  0
  5 20  1  0
  7 21  1  0
  7 22  1  0
  8 23  1  0
  8 24  1  0
 10 25  1  0
 10 26  1  0
 11 27  1  0
 11 28  1  0
 11 29  1  0
M  END
>  <anchor_atom_maps>  (83) 
1,2

>  <distance_A>  (83) 
10.352846175116701

>  <Rg_A>  (83) 
3.4833900006195306

>  <energy_kcal_mol>  (83) 
47.86427077699844

>  <ensemble>  (83) 
ETKDGv3 unweighted sampling; not a thermodynamic population

$$$$
Flexible PEG synthetic attachment-point proxy 83
     RDKit          3D

 29 28  0  0  0  0  0  0  0  0999 V2000
   -5.3471    0.0404    0.8190 C   0  0  0  0  0  0  0  0  0  1  0  0
   -4.1394   -0.3727    0.0008 C   0  0  0  0  0  0  0  0  0  0  0  0
   -3.3136    0.7739   -0.1888 O   0  0  0  0  0  0  0  0  0  0  0  0
   -2.1500    0.5005   -0.9694 C   0  0  0  0  0  0  0  0  0  0  0  0
   -1.0175   -0.0820   -0.1248 C   0  0  0  0  0  0  0  0  0  0  0  0
    0.1273   -0.2862   -0.9535 O   0  0  0  0  0  0  0  0  0  0  0  0
    1.2344   -0.8484   -0.2481 C   0  0  0  0  0  0  0  0  0  0  0  0
    2.0192    0.2064    0.5355 C   0  0  0  0  0  0  0  0  0  0  0  0
    3.1550   -0.3689    1.1820 O   0  0  0  0  0  0  0  0  0  0  0  0
    4.3247   -0.4140    0.3670 C   0  0  0  0  0  0  0  0  0  0  0  0
    5.0837    0.8989    0.4446 C   0  0  0  0  0  0  0  0  0  2  0  0
   -5.0362    0.4433    1.7886 H   0  0  0  0  0  0  0  0  0  0  0  0
   -6.0138   -0.8100    0.9874 H   0  0  0  0  0  0  0  0  0  0  0  0
   -5.9060    0.8322    0.3092 H   0  0  0  0  0  0  0  0  0  0  0  0
   -4.4658   -0.7582   -0.9713 H   0  0  0  0  0  0  0  0  0  0  0  0
   -3.5872   -1.1551    0.5304 H   0  0  0  0  0  0  0  0  0  0  0  0
   -1.8157    1.4514   -1.3999 H   0  0  0  0  0  0  0  0  0  0  0  0
   -2.3884   -0.1496   -1.8201 H   0  0  0  0  0  0  0  0  0  0  0  0
   -1.3239   -1.0359    0.3175 H   0  0  0  0  0  0  0  0  0  0  0  0
   -0.7845    0.6068    0.6942 H   0  0  0  0  0  0  0  0  0  0  0  0
    1.8877   -1.3072   -0.9975 H   0  0  0  0  0  0  0  0  0  0  0  0
    0.9091   -1.6661    0.4068 H   0  0  0  0  0  0  0  0  0  0  0  0
    1.3847    0.6242    1.3235 H   0  0  0  0  0  0  0  0  0  0  0  0
    2.2990    1.0475   -0.1088 H   0  0  0  0  0  0  0  0  0  0  0  0
    4.0805   -0.6695   -0.6694 H   0  0  0  0  0  0  0  0  0  0  0  0
    4.9594   -1.2140    0.7621 H   0  0  0  0  0  0  0  0  0  0  0  0
    6.0219    0.8361   -0.1142 H   0  0  0  0  0  0  0  0  0  0  0  0
    5.3092    1.1512    1.4860 H   0  0  0  0  0  0  0  0  0  0  0  0
    4.4933    1.7250    0.0373 H   0  0  0  0  0  0  0  0  0  0  0  0
  1  2  1  0
  2  3  1  0
  3  4  1  0
  4  5  1  0
  5  6  1  0
  6  7  1  0
  7  8  1  0
  8  9  1  0
  9 10  1  0
 10 11  1  0
  1 12  1  0
  1 13  1  0
  1 14  1  0
  2 15  1  0
  2 16  1  0
  4 17  1  0
  4 18  1  0
  5 19  1  0
  5 20  1  0
  7 21  1  0
  7 22  1  0
  8 23  1  0
  8 24  1  0
 10 25  1  0
 10 26  1  0
 11 27  1  0
 11 28  1  0
 11 29  1  0
M  END
>  <anchor_atom_maps>  (84) 
1,2

>  <distance_A>  (84) 
10.472817210930131

>  <Rg_A>  (84) 
3.4896846378531654

>  <energy_kcal_mol>  (84) 
49.292769437591744

>  <ensemble>  (84) 
ETKDGv3 unweighted sampling; not a thermodynamic population

$$$$
Flexible PEG synthetic attachment-point proxy 84
     RDKit          3D

 29 28  0  0  0  0  0  0  0  0999 V2000
    4.3014    0.6683   -1.2573 C   0  0  0  0  0  0  0  0  0  1  0  0
    3.8981   -0.0354    0.0230 C   0  0  0  0  0  0  0  0  0  0  0  0
    2.5835   -0.5598   -0.1476 O   0  0  0  0  0  0  0  0  0  0  0  0
    2.1287   -1.2393    1.0282 C   0  0  0  0  0  0  0  0  0  0  0  0
    0.7074   -1.7636    0.8112 C   0  0  0  0  0  0  0  0  0  0  0  0
   -0.2942   -0.7611    1.0168 O   0  0  0  0  0  0  0  0  0  0  0  0
   -0.3392    0.2150   -0.0314 C   0  0  0  0  0  0  0  0  0  0  0  0
   -1.6312    1.0232    0.0887 C   0  0  0  0  0  0  0  0  0  0  0  0
   -2.7318    0.2430   -0.3933 O   0  0  0  0  0  0  0  0  0  0  0  0
   -3.9724    0.9229   -0.2255 C   0  0  0  0  0  0  0  0  0  0  0  0
   -5.0788    0.0431   -0.7724 C   0  0  0  0  0  0  0  0  0  2  0  0
    3.5992    1.4755   -1.4910 H   0  0  0  0  0  0  0  0  0  0  0  0
    5.3071    1.0889   -1.1714 H   0  0  0  0  0  0  0  0  0  0  0  0
    4.2798   -0.0272   -2.1028 H   0  0  0  0  0  0  0  0  0  0  0  0
    4.5973   -0.8511    0.2366 H   0  0  0  0  0  0  0  0  0  0  0  0
    3.9078    0.6751    0.8568 H   0  0  0  0  0  0  0  0  0  0  0  0
    2.7999   -2.0840    1.2184 H   0  0  0  0  0  0  0  0  0  0  0  0
    2.1527   -0.5495    1.8792 H   0  0  0  0  0  0  0  0  0  0  0  0
    0.5066   -2.5414    1.5553 H   0  0  0  0  0  0  0  0  0  0  0  0
    0.5865   -2.2099   -0.1824 H   0  0  0  0  0  0  0  0  0  0  0  0
    0.5119    0.8921    0.0862 H   0  0  0  0  0  0  0  0  0  0  0  0
   -0.2955   -0.2797   -1.0080 H   0  0  0  0  0  0  0  0  0  0  0  0
   -1.5545    1.9288   -0.5227 H   0  0  0  0  0  0  0  0  0  0  0  0
   -1.8106    1.2975    1.1345 H   0  0  0  0  0  0  0  0  0  0  0  0
   -3.9500    1.8741   -0.7687 H   0  0  0  0  0  0  0  0  0  0  0  0
   -4.1458    1.1202    0.8380 H   0  0  0  0  0  0  0  0  0  0  0  0
   -4.9094   -0.1757   -1.8319 H   0  0  0  0  0  0  0  0  0  0  0  0
   -6.0529    0.5280   -0.6633 H   0  0  0  0  0  0  0  0  0  0  0  0
   -5.1016   -0.9181   -0.2483 H   0  0  0  0  0  0  0  0  0  0  0  0
  1  2  1  0
  2  3  1  0
  3  4  1  0
  4  5  1  0
  5  6  1  0
  6  7  1  0
  7  8  1  0
  8  9  1  0
  9 10  1  0
 10 11  1  0
  1 12  1  0
  1 13  1  0
  1 14  1  0
  2 15  1  0
  2 16  1  0
  4 17  1  0
  4 18  1  0
  5 19  1  0
  5 20  1  0
  7 21  1  0
  7 22  1  0
  8 23  1  0
  8 24  1  0
 10 25  1  0
 10 26  1  0
 11 27  1  0
 11 28  1  0
 11 29  1  0
M  END
>  <anchor_atom_maps>  (85) 
1,2

>  <distance_A>  (85) 
9.413482153555675

>  <Rg_A>  (85) 
3.2212583391982825

>  <energy_kcal_mol>  (85) 
46.304665354052815

>  <ensemble>  (85) 
ETKDGv3 unweighted sampling; not a thermodynamic population

$$$$
Flexible PEG synthetic attachment-point proxy 85
     RDKit          3D

 29 28  0  0  0  0  0  0  0  0999 V2000
    5.0741   -0.3593    1.6054 C   0  0  0  0  0  0  0  0  0  1  0  0
    4.2543   -0.7925    0.4063 C   0  0  0  0  0  0  0  0  0  0  0  0
    2.8728   -0.6627    0.7343 O   0  0  0  0  0  0  0  0  0  0  0  0
    2.0368   -1.0534   -0.3546 C   0  0  0  0  0  0  0  0  0  0  0  0
    0.5747   -0.9056    0.0533 C   0  0  0  0  0  0  0  0  0  0  0  0
   -0.2594   -1.2793   -1.0433 O   0  0  0  0  0  0  0  0  0  0  0  0
   -1.6513   -1.2198   -0.7278 C   0  0  0  0  0  0  0  0  0  0  0  0
   -2.2101    0.1983   -0.8400 C   0  0  0  0  0  0  0  0  0  0  0  0
   -3.6120    0.1700   -0.5727 O   0  0  0  0  0  0  0  0  0  0  0  0
   -4.2441    1.4374   -0.7402 C   0  0  0  0  0  0  0  0  0  0  0  0
   -4.0158    2.3387    0.4600 C   0  0  0  0  0  0  0  0  0  2  0  0
    6.1444   -0.4430    1.3972 H   0  0  0  0  0  0  0  0  0  0  0  0
    4.8461    0.6774    1.8741 H   0  0  0  0  0  0  0  0  0  0  0  0
    4.8345   -0.9748    2.4788 H   0  0  0  0  0  0  0  0  0  0  0  0
    4.4796   -1.8356    0.1585 H   0  0  0  0  0  0  0  0  0  0  0  0
    4.4913   -0.1586   -0.4553 H   0  0  0  0  0  0  0  0  0  0  0  0
    2.2435   -0.4264   -1.2302 H   0  0  0  0  0  0  0  0  0  0  0  0
    2.2413   -2.0944   -0.6323 H   0  0  0  0  0  0  0  0  0  0  0  0
    0.3681   -1.5451    0.9198 H   0  0  0  0  0  0  0  0  0  0  0  0
    0.3801    0.1310    0.3488 H   0  0  0  0  0  0  0  0  0  0  0  0
   -1.8492   -1.6487    0.2622 H   0  0  0  0  0  0  0  0  0  0  0  0
   -2.1744   -1.8628   -1.4449 H   0  0  0  0  0  0  0  0  0  0  0  0
   -1.7071    0.8596   -0.1287 H   0  0  0  0  0  0  0  0  0  0  0  0
   -2.0241    0.5864   -1.8484 H   0  0  0  0  0  0  0  0  0  0  0  0
   -5.3177    1.2454   -0.8378 H   0  0  0  0  0  0  0  0  0  0  0  0
   -3.9127    1.9164   -1.6684 H   0  0  0  0  0  0  0  0  0  0  0  0
   -4.2945    1.8259    1.3863 H   0  0  0  0  0  0  0  0  0  0  0  0
   -4.6065    3.2552    0.3711 H   0  0  0  0  0  0  0  0  0  0  0  0
   -2.9627    2.6202    0.5524 H   0  0  0  0  0  0  0  0  0  0  0  0
  1  2  1  0
  2  3  1  0
  3  4  1  0
  4  5  1  0
  5  6  1  0
  6  7  1  0
  7  8  1  0
  8  9  1  0
  9 10  1  0
 10 11  1  0
  1 12  1  0
  1 13  1  0
  1 14  1  0
  2 15  1  0
  2 16  1  0
  4 17  1  0
  4 18  1  0
  5 19  1  0
  5 20  1  0
  7 21  1  0
  7 22  1  0
  8 23  1  0
  8 24  1  0
 10 25  1  0
 10 26  1  0
 11 27  1  0
 11 28  1  0
 11 29  1  0
M  END
>  <anchor_atom_maps>  (86) 
1,2

>  <distance_A>  (86) 
9.550714152576598

>  <Rg_A>  (86) 
3.507486620798421

>  <energy_kcal_mol>  (86) 
46.10228112673682

>  <ensemble>  (86) 
ETKDGv3 unweighted sampling; not a thermodynamic population

$$$$
Flexible PEG synthetic attachment-point proxy 86
     RDKit          3D

 29 28  0  0  0  0  0  0  0  0999 V2000
    5.2630    0.4633   -1.1183 C   0  0  0  0  0  0  0  0  0  1  0  0
    4.3837   -0.2898   -0.1400 C   0  0  0  0  0  0  0  0  0  0  0  0
    3.0754    0.2723   -0.1852 O   0  0  0  0  0  0  0  0  0  0  0  0
    2.1868   -0.3780    0.7299 C   0  0  0  0  0  0  0  0  0  0  0  0
    0.7782    0.1926    0.5630 C   0  0  0  0  0  0  0  0  0  0  0  0
    0.1771   -0.3657   -0.6111 O   0  0  0  0  0  0  0  0  0  0  0  0
   -1.0739    0.2375   -0.9415 C   0  0  0  0  0  0  0  0  0  0  0  0
   -2.2250   -0.3211   -0.1061 C   0  0  0  0  0  0  0  0  0  0  0  0
   -3.4463    0.2892   -0.5225 O   0  0  0  0  0  0  0  0  0  0  0  0
   -4.5975   -0.2514    0.1223 C   0  0  0  0  0  0  0  0  0  0  0  0
   -4.7640    0.3010    1.5268 C   0  0  0  0  0  0  0  0  0  2  0  0
    6.2806    0.0630   -1.1166 H   0  0  0  0  0  0  0  0  0  0  0  0
    5.3011    1.5273   -0.8623 H   0  0  0  0  0  0  0  0  0  0  0  0
    4.8576    0.3942   -2.1332 H   0  0  0  0  0  0  0  0  0  0  0  0
    4.3415   -1.3488   -0.4174 H   0  0  0  0  0  0  0  0  0  0  0  0
    4.7909   -0.1994    0.8730 H   0  0  0  0  0  0  0  0  0  0  0  0
    2.5407   -0.1877    1.7489 H   0  0  0  0  0  0  0  0  0  0  0  0
    2.1852   -1.4562    0.5341 H   0  0  0  0  0  0  0  0  0  0  0  0
    0.1737   -0.0820    1.4328 H   0  0  0  0  0  0  0  0  0  0  0  0
    0.8227    1.2836    0.4712 H   0  0  0  0  0  0  0  0  0  0  0  0
   -1.0175    1.3300   -0.8619 H   0  0  0  0  0  0  0  0  0  0  0  0
   -1.2689    0.0230   -1.9985 H   0  0  0  0  0  0  0  0  0  0  0  0
   -2.0520   -0.1205    0.9552 H   0  0  0  0  0  0  0  0  0  0  0  0
   -2.2786   -1.4083   -0.2380 H   0  0  0  0  0  0  0  0  0  0  0  0
   -4.5612   -1.3465    0.1256 H   0  0  0  0  0  0  0  0  0  0  0  0
   -5.4645    0.0440   -0.4778 H   0  0  0  0  0  0  0  0  0  0  0  0
   -3.9581   -0.0359    2.1854 H   0  0  0  0  0  0  0  0  0  0  0  0
   -4.7360    1.3954    1.5170 H   0  0  0  0  0  0  0  0  0  0  0  0
   -5.7148   -0.0252    1.9584 H   0  0  0  0  0  0  0  0  0  0  0  0
  1  2  1  0
  2  3  1  0
  3  4  1  0
  4  5  1  0
  5  6  1  0
  6  7  1  0
  7  8  1  0
  8  9  1  0
  9 10  1  0
 10 11  1  0
  1 12  1  0
  1 13  1  0
  1 14  1  0
  2 15  1  0
  2 16  1  0
  4 17  1  0
  4 18  1  0
  5 19  1  0
  5 20  1  0
  7 21  1  0
  7 22  1  0
  8 23  1  0
  8 24  1  0
 10 25  1  0
 10 26  1  0
 11 27  1  0
 11 28  1  0
 11 29  1  0
M  END
>  <anchor_atom_maps>  (87) 
1,2

>  <distance_A>  (87) 
10.371249985338979

>  <Rg_A>  (87) 
3.49817857144421

>  <energy_kcal_mol>  (87) 
48.612697705845946

>  <ensemble>  (87) 
ETKDGv3 unweighted sampling; not a thermodynamic population

$$$$
Flexible PEG synthetic attachment-point proxy 87
     RDKit          3D

 29 28  0  0  0  0  0  0  0  0999 V2000
   -4.3937    1.0091   -0.1494 C   0  0  0  0  0  0  0  0  0  1  0  0
   -3.9511   -0.1993    0.6562 C   0  0  0  0  0  0  0  0  0  0  0  0
   -3.0990   -1.0514   -0.1067 O   0  0  0  0  0  0  0  0  0  0  0  0
   -1.7456   -0.5981   -0.1502 C   0  0  0  0  0  0  0  0  0  0  0  0
   -0.9169   -1.5765   -0.9815 C   0  0  0  0  0  0  0  0  0  0  0  0
    0.4479   -1.1684   -1.0625 O   0  0  0  0  0  0  0  0  0  0  0  0
    1.2359   -1.6542    0.0305 C   0  0  0  0  0  0  0  0  0  0  0  0
    2.6070   -0.9815    0.0011 C   0  0  0  0  0  0  0  0  0  0  0  0
    2.4869    0.3524    0.5105 O   0  0  0  0  0  0  0  0  0  0  0  0
    3.7186    1.0631    0.4184 C   0  0  0  0  0  0  0  0  0  0  0  0
    3.5142    2.4514    0.9912 C   0  0  0  0  0  0  0  0  0  2  0  0
   -3.5499    1.6663   -0.3790 H   0  0  0  0  0  0  0  0  0  0  0  0
   -5.1373    1.5896    0.4045 H   0  0  0  0  0  0  0  0  0  0  0  0
   -4.8278    0.6975   -1.1050 H   0  0  0  0  0  0  0  0  0  0  0  0
   -4.8346   -0.7894    0.9210 H   0  0  0  0  0  0  0  0  0  0  0  0
   -3.4656    0.0999    1.5919 H   0  0  0  0  0  0  0  0  0  0  0  0
   -1.3484   -0.5298    0.8683 H   0  0  0  0  0  0  0  0  0  0  0  0
   -1.6846    0.3994   -0.5985 H   0  0  0  0  0  0  0  0  0  0  0  0
   -1.3148   -1.5981   -2.0024 H   0  0  0  0  0  0  0  0  0  0  0  0
   -1.0033   -2.6011   -0.5989 H   0  0  0  0  0  0  0  0  0  0  0  0
    0.7358   -1.4444    0.9817 H   0  0  0  0  0  0  0  0  0  0  0  0
    1.3538   -2.7363   -0.0906 H   0  0  0  0  0  0  0  0  0  0  0  0
    2.9929   -0.9477   -1.0240 H   0  0  0  0  0  0  0  0  0  0  0  0
    3.3022   -1.5354    0.6411 H   0  0  0  0  0  0  0  0  0  0  0  0
    4.0268    1.1354   -0.6303 H   0  0  0  0  0  0  0  0  0  0  0  0
    4.4936    0.5361    0.9857 H   0  0  0  0  0  0  0  0  0  0  0  0
    3.1896    2.3937    2.0355 H   0  0  0  0  0  0  0  0  0  0  0  0
    2.7297    2.9832    0.4428 H   0  0  0  0  0  0  0  0  0  0  0  0
    4.4380    3.0345    0.9403 H   0  0  0  0  0  0  0  0  0  0  0  0
  1  2  1  0
  2  3  1  0
  3  4  1  0
  4  5  1  0
  5  6  1  0
  6  7  1  0
  7  8  1  0
  8  9  1  0
  9 10  1  0
 10 11  1  0
  1 12  1  0
  1 13  1  0
  1 14  1  0
  2 15  1  0
  2 16  1  0
  4 17  1  0
  4 18  1  0
  5 19  1  0
  5 20  1  0
  7 21  1  0
  7 22  1  0
  8 23  1  0
  8 24  1  0
 10 25  1  0
 10 26  1  0
 11 27  1  0
 11 28  1  0
 11 29  1  0
M  END
>  <anchor_atom_maps>  (88) 
1,2

>  <distance_A>  (88) 
8.11895896733228

>  <Rg_A>  (88) 
3.216706954507917

>  <energy_kcal_mol>  (88) 
47.75501306193617

>  <ensemble>  (88) 
ETKDGv3 unweighted sampling; not a thermodynamic population

$$$$
Flexible PEG synthetic attachment-point proxy 88
     RDKit          3D

 29 28  0  0  0  0  0  0  0  0999 V2000
   -4.8675    0.2729    1.3833 C   0  0  0  0  0  0  0  0  0  1  0  0
   -4.3670   -0.9111    0.5753 C   0  0  0  0  0  0  0  0  0  0  0  0
   -2.9421   -0.9744    0.5669 O   0  0  0  0  0  0  0  0  0  0  0  0
   -2.3460   -0.0758   -0.3682 C   0  0  0  0  0  0  0  0  0  0  0  0
   -0.8319   -0.2627   -0.3439 C   0  0  0  0  0  0  0  0  0  0  0  0
   -0.2306    0.6354   -1.2760 O   0  0  0  0  0  0  0  0  0  0  0  0
    1.1894    0.4974   -1.3473 C   0  0  0  0  0  0  0  0  0  0  0  0
    1.9008    1.2359   -0.2109 C   0  0  0  0  0  0  0  0  0  0  0  0
    3.3214    1.1939   -0.3502 O   0  0  0  0  0  0  0  0  0  0  0  0
    3.8959   -0.0192    0.1299 C   0  0  0  0  0  0  0  0  0  0  0  0
    5.4000    0.0663   -0.0401 C   0  0  0  0  0  0  0  0  0  2  0  0
   -4.5974    1.2214    0.9098 H   0  0  0  0  0  0  0  0  0  0  0  0
   -5.9565    0.2392    1.4815 H   0  0  0  0  0  0  0  0  0  0  0  0
   -4.4214    0.2739    2.3831 H   0  0  0  0  0  0  0  0  0  0  0  0
   -4.7611   -0.8927   -0.4470 H   0  0  0  0  0  0  0  0  0  0  0  0
   -4.7222   -1.8341    1.0453 H   0  0  0  0  0  0  0  0  0  0  0  0
   -2.5896    0.9617   -0.1154 H   0  0  0  0  0  0  0  0  0  0  0  0
   -2.7261   -0.2736   -1.3775 H   0  0  0  0  0  0  0  0  0  0  0  0
   -0.4568   -0.0758    0.6680 H   0  0  0  0  0  0  0  0  0  0  0  0
   -0.5845   -1.2984   -0.6059 H   0  0  0  0  0  0  0  0  0  0  0  0
    1.4689   -0.5612   -1.3871 H   0  0  0  0  0  0  0  0  0  0  0  0
    1.5111    0.9296   -2.3017 H   0  0  0  0  0  0  0  0  0  0  0  0
    1.6016    0.8610    0.7741 H   0  0  0  0  0  0  0  0  0  0  0  0
    1.6013    2.2899   -0.2360 H   0  0  0  0  0  0  0  0  0  0  0  0
    3.5105   -0.8722   -0.4369 H   0  0  0  0  0  0  0  0  0  0  0  0
    3.6505   -0.1512    1.1893 H   0  0  0  0  0  0  0  0  0  0  0  0
    5.6611    0.2143   -1.0933 H   0  0  0  0  0  0  0  0  0  0  0  0
    5.8025    0.9225    0.5113 H   0  0  0  0  0  0  0  0  0  0  0  0
    5.8858   -0.8451    0.3194 H   0  0  0  0  0  0  0  0  0  0  0  0
  1  2  1  0
  2  3  1  0
  3  4  1  0
  4  5  1  0
  5  6  1  0
  6  7  1  0
  7  8  1  0
  8  9  1  0
  9 10  1  0
 10 11  1  0
  1 12  1  0
  1 13  1  0
  1 14  1  0
  2 15  1  0
  2 16  1  0
  4 17  1  0
  4 18  1  0
  5 19  1  0
  5 20  1  0
  7 21  1  0
  7 22  1  0
  8 23  1  0
  8 24  1  0
 10 25  1  0
 10 26  1  0
 11 27  1  0
 11 28  1  0
 11 29  1  0
M  END
>  <anchor_atom_maps>  (89) 
1,2

>  <distance_A>  (89) 
10.367817830992449

>  <Rg_A>  (89) 
3.4847726170216955

>  <energy_kcal_mol>  (89) 
47.87732242284909

>  <ensemble>  (89) 
ETKDGv3 unweighted sampling; not a thermodynamic population

$$$$
Flexible PEG synthetic attachment-point proxy 89
     RDKit          3D

 29 28  0  0  0  0  0  0  0  0999 V2000
   -4.8245   -0.3644   -0.2194 C   0  0  0  0  0  0  0  0  0  1  0  0
   -3.7123   -0.4937    0.8061 C   0  0  0  0  0  0  0  0  0  0  0  0
   -3.0537    0.7409    1.0646 O   0  0  0  0  0  0  0  0  0  0  0  0
   -2.3140    1.3123   -0.0175 C   0  0  0  0  0  0  0  0  0  0  0  0
   -1.1477    0.4573   -0.5254 C   0  0  0  0  0  0  0  0  0  0  0  0
   -0.1974    0.2618    0.5244 O   0  0  0  0  0  0  0  0  0  0  0  0
    0.8862   -0.5892    0.1536 C   0  0  0  0  0  0  0  0  0  0  0  0
    1.9633    0.1580   -0.6358 C   0  0  0  0  0  0  0  0  0  0  0  0
    3.0523   -0.7018   -0.9724 O   0  0  0  0  0  0  0  0  0  0  0  0
    4.0524   -0.7945    0.0406 C   0  0  0  0  0  0  0  0  0  0  0  0
    5.0528    0.3406   -0.0875 C   0  0  0  0  0  0  0  0  0  2  0  0
   -5.4096   -1.2875   -0.2697 H   0  0  0  0  0  0  0  0  0  0  0  0
   -5.4918    0.4655    0.0343 H   0  0  0  0  0  0  0  0  0  0  0  0
   -4.4226   -0.1665   -1.2176 H   0  0  0  0  0  0  0  0  0  0  0  0
   -2.9937   -1.2674    0.5202 H   0  0  0  0  0  0  0  0  0  0  0  0
   -4.1518   -0.8145    1.7568 H   0  0  0  0  0  0  0  0  0  0  0  0
   -2.9943    1.5606   -0.8383 H   0  0  0  0  0  0  0  0  0  0  0  0
   -1.9138    2.2584    0.3635 H   0  0  0  0  0  0  0  0  0  0  0  0
   -0.6668    0.9799   -1.3585 H   0  0  0  0  0  0  0  0  0  0  0  0
   -1.5026   -0.5142   -0.8823 H   0  0  0  0  0  0  0  0  0  0  0  0
    0.5276   -1.4661   -0.3991 H   0  0  0  0  0  0  0  0  0  0  0  0
    1.3175   -0.9769    1.0823 H   0  0  0  0  0  0  0  0  0  0  0  0
    1.5413    0.5168   -1.5800 H   0  0  0  0  0  0  0  0  0  0  0  0
    2.2999    1.0496   -0.0949 H   0  0  0  0  0  0  0  0  0  0  0  0
    3.6081   -0.8195    1.0410 H   0  0  0  0  0  0  0  0  0  0  0  0
    4.5741   -1.7452   -0.1111 H   0  0  0  0  0  0  0  0  0  0  0  0
    5.4788    0.3653   -1.0959 H   0  0  0  0  0  0  0  0  0  0  0  0
    4.5776    1.3114    0.0815 H   0  0  0  0  0  0  0  0  0  0  0  0
    5.8649    0.2229    0.6357 H   0  0  0  0  0  0  0  0  0  0  0  0
  1  2  1  0
  2  3  1  0
  3  4  1  0
  4  5  1  0
  5  6  1  0
  6  7  1  0
  7  8  1  0
  8  9  1  0
  9 10  1  0
 10 11  1  0
  1 12  1  0
  1 13  1  0
  1 14  1  0
  2 15  1  0
  2 16  1  0
  4 17  1  0
  4 18  1  0
  5 19  1  0
  5 20  1  0
  7 21  1  0
  7 22  1  0
  8 23  1  0
  8 24  1  0
 10 25  1  0
 10 26  1  0
 11 27  1  0
 11 28  1  0
 11 29  1  0
M  END
>  <anchor_atom_maps>  (90) 
1,2

>  <distance_A>  (90) 
9.903350839017746

>  <Rg_A>  (90) 
3.3187180853115454

>  <energy_kcal_mol>  (90) 
53.53805962605064

>  <ensemble>  (90) 
ETKDGv3 unweighted sampling; not a thermodynamic population

$$$$
Flexible PEG synthetic attachment-point proxy 90
     RDKit          3D

 29 28  0  0  0  0  0  0  0  0999 V2000
   -4.9559    0.4824   -0.6671 C   0  0  0  0  0  0  0  0  0  1  0  0
   -3.7211    0.7586    0.1722 C   0  0  0  0  0  0  0  0  0  0  0  0
   -3.0142   -0.4501    0.4427 O   0  0  0  0  0  0  0  0  0  0  0  0
   -2.1028   -0.8311   -0.5881 C   0  0  0  0  0  0  0  0  0  0  0  0
   -0.7326   -0.1884   -0.3788 C   0  0  0  0  0  0  0  0  0  0  0  0
    0.1449   -0.5974   -1.4274 O   0  0  0  0  0  0  0  0  0  0  0  0
    1.4652   -0.0721   -1.2845 C   0  0  0  0  0  0  0  0  0  0  0  0
    2.3239   -0.9271   -0.3495 C   0  0  0  0  0  0  0  0  0  0  0  0
    3.6517   -0.4120   -0.2481 O   0  0  0  0  0  0  0  0  0  0  0  0
    3.8089    0.6024    0.7417 C   0  0  0  0  0  0  0  0  0  0  0  0
    4.0650   -0.0130    2.1060 C   0  0  0  0  0  0  0  0  0  2  0  0
   -5.5871   -0.2715   -0.1853 H   0  0  0  0  0  0  0  0  0  0  0  0
   -4.6883    0.0908   -1.6530 H   0  0  0  0  0  0  0  0  0  0  0  0
   -5.5411    1.3962   -0.8055 H   0  0  0  0  0  0  0  0  0  0  0  0
   -3.0737    1.5007   -0.3069 H   0  0  0  0  0  0  0  0  0  0  0  0
   -4.0336    1.1696    1.1377 H   0  0  0  0  0  0  0  0  0  0  0  0
   -1.9928   -1.9206   -0.5431 H   0  0  0  0  0  0  0  0  0  0  0  0
   -2.4975   -0.6058   -1.5854 H   0  0  0  0  0  0  0  0  0  0  0  0
   -0.3362   -0.4866    0.5980 H   0  0  0  0  0  0  0  0  0  0  0  0
   -0.8210    0.9037   -0.3804 H   0  0  0  0  0  0  0  0  0  0  0  0
    1.9257   -0.0710   -2.2792 H   0  0  0  0  0  0  0  0  0  0  0  0
    1.4329    0.9767   -0.9680 H   0  0  0  0  0  0  0  0  0  0  0  0
    2.3949   -1.9384   -0.7657 H   0  0  0  0  0  0  0  0  0  0  0  0
    1.8657   -1.0393    0.6382 H   0  0  0  0  0  0  0  0  0  0  0  0
    4.6802    1.1992    0.4530 H   0  0  0  0  0  0  0  0  0  0  0  0
    2.9440    1.2736    0.7666 H   0  0  0  0  0  0  0  0  0  0  0  0
    3.2059   -0.5986    2.4466 H   0  0  0  0  0  0  0  0  0  0  0  0
    4.9203   -0.6954    2.0653 H   0  0  0  0  0  0  0  0  0  0  0  0
    4.2689    0.7644    2.8480 H   0  0  0  0  0  0  0  0  0  0  0  0
  1  2  1  0
  2  3  1  0
  3  4  1  0
  4  5  1  0
  5  6  1  0
  6  7  1  0
  7  8  1  0
  8  9  1  0
  9 10  1  0
 10 11  1  0
  1 12  1  0
  1 13  1  0
  1 14  1  0
  2 15  1  0
  2 16  1  0
  4 17  1  0
  4 18  1  0
  5 19  1  0
  5 20  1  0
  7 21  1  0
  7 22  1  0
  8 23  1  0
  8 24  1  0
 10 25  1  0
 10 26  1  0
 11 27  1  0
 11 28  1  0
 11 29  1  0
M  END
>  <anchor_atom_maps>  (91) 
1,2

>  <distance_A>  (91) 
9.450530075020945

>  <Rg_A>  (91) 
3.318631952888008

>  <energy_kcal_mol>  (91) 
51.193462186925785

>  <ensemble>  (91) 
ETKDGv3 unweighted sampling; not a thermodynamic population

$$$$
Flexible PEG synthetic attachment-point proxy 91
     RDKit          3D

 29 28  0  0  0  0  0  0  0  0999 V2000
    5.1399    0.2807   -0.9130 C   0  0  0  0  0  0  0  0  0  1  0  0
    4.3324   -0.1995    0.2796 C   0  0  0  0  0  0  0  0  0  0  0  0
    3.1402   -0.8659   -0.1306 O   0  0  0  0  0  0  0  0  0  0  0  0
    2.0858    0.0297   -0.4810 C   0  0  0  0  0  0  0  0  0  0  0  0
    0.8527   -0.7812   -0.8782 C   0  0  0  0  0  0  0  0  0  0  0  0
   -0.2329    0.0673   -1.2546 O   0  0  0  0  0  0  0  0  0  0  0  0
   -1.0357    0.4971   -0.1549 C   0  0  0  0  0  0  0  0  0  0  0  0
   -2.1191   -0.5293    0.1855 C   0  0  0  0  0  0  0  0  0  0  0  0
   -2.9322   -0.0819    1.2705 O   0  0  0  0  0  0  0  0  0  0  0  0
   -4.0350    0.7302    0.8723 C   0  0  0  0  0  0  0  0  0  0  0  0
   -5.2225   -0.1314    0.4807 C   0  0  0  0  0  0  0  0  0  2  0  0
    5.3160   -0.5405   -1.6153 H   0  0  0  0  0  0  0  0  0  0  0  0
    6.1045    0.6819   -0.5885 H   0  0  0  0  0  0  0  0  0  0  0  0
    4.6117    1.0656   -1.4623 H   0  0  0  0  0  0  0  0  0  0  0  0
    4.9277   -0.9296    0.8377 H   0  0  0  0  0  0  0  0  0  0  0  0
    4.1012    0.6247    0.9638 H   0  0  0  0  0  0  0  0  0  0  0  0
    1.8557    0.6800    0.3700 H   0  0  0  0  0  0  0  0  0  0  0  0
    2.3833    0.6699   -1.3184 H   0  0  0  0  0  0  0  0  0  0  0  0
    0.5653   -1.4787   -0.0831 H   0  0  0  0  0  0  0  0  0  0  0  0
    1.1016   -1.3991   -1.7485 H   0  0  0  0  0  0  0  0  0  0  0  0
   -0.4255    0.7301    0.7253 H   0  0  0  0  0  0  0  0  0  0  0  0
   -1.5067    1.4395   -0.4531 H   0  0  0  0  0  0  0  0  0  0  0  0
   -2.7183   -0.7754   -0.6985 H   0  0  0  0  0  0  0  0  0  0  0  0
   -1.6491   -1.4657    0.5030 H   0  0  0  0  0  0  0  0  0  0  0  0
   -3.7570    1.4131    0.0628 H   0  0  0  0  0  0  0  0  0  0  0  0
   -4.3111    1.3415    1.7376 H   0  0  0  0  0  0  0  0  0  0  0  0
   -4.9980   -0.7437   -0.3978 H   0  0  0  0  0  0  0  0  0  0  0  0
   -5.4814   -0.8201    1.2916 H   0  0  0  0  0  0  0  0  0  0  0  0
   -6.0932    0.4908    0.2548 H   0  0  0  0  0  0  0  0  0  0  0  0
  1  2  1  0
  2  3  1  0
  3  4  1  0
  4  5  1  0
  5  6  1  0
  6  7  1  0
  7  8  1  0
  8  9  1  0
  9 10  1  0
 10 11  1  0
  1 12  1  0
  1 13  1  0
  1 14  1  0
  2 15  1  0
  2 16  1  0
  4 17  1  0
  4 18  1  0
  5 19  1  0
  5 20  1  0
  7 21  1  0
  7 22  1  0
  8 23  1  0
  8 24  1  0
 10 25  1  0
 10 26  1  0
 11 27  1  0
 11 28  1  0
 11 29  1  0
M  END
>  <anchor_atom_maps>  (92) 
1,2

>  <distance_A>  (92) 
10.463790039468327

>  <Rg_A>  (92) 
3.4438223145523894

>  <energy_kcal_mol>  (92) 
50.673055431303766

>  <ensemble>  (92) 
ETKDGv3 unweighted sampling; not a thermodynamic population

$$$$
Flexible PEG synthetic attachment-point proxy 92
     RDKit          3D

 29 28  0  0  0  0  0  0  0  0999 V2000
   -4.0274    1.1243   -1.3866 C   0  0  0  0  0  0  0  0  0  1  0  0
   -4.1679   -0.1794   -0.6212 C   0  0  0  0  0  0  0  0  0  0  0  0
   -3.3990   -0.1687    0.5800 O   0  0  0  0  0  0  0  0  0  0  0  0
   -2.0111   -0.4237    0.3616 C   0  0  0  0  0  0  0  0  0  0  0  0
   -1.2979   -0.4966    1.7111 C   0  0  0  0  0  0  0  0  0  0  0  0
    0.0954   -0.7605    1.5533 O   0  0  0  0  0  0  0  0  0  0  0  0
    0.8668    0.4328    1.3717 C   0  0  0  0  0  0  0  0  0  0  0  0
    2.2955    0.0549    0.9823 C   0  0  0  0  0  0  0  0  0  0  0  0
    2.3165   -0.3302   -0.3975 O   0  0  0  0  0  0  0  0  0  0  0  0
    3.5556   -0.9042   -0.8064 C   0  0  0  0  0  0  0  0  0  0  0  0
    4.6347    0.1487   -0.9856 C   0  0  0  0  0  0  0  0  0  2  0  0
   -4.7165    1.1481   -2.2359 H   0  0  0  0  0  0  0  0  0  0  0  0
   -3.0109    1.2540   -1.7695 H   0  0  0  0  0  0  0  0  0  0  0  0
   -4.2378    1.9787   -0.7353 H   0  0  0  0  0  0  0  0  0  0  0  0
   -5.2149   -0.3035   -0.3256 H   0  0  0  0  0  0  0  0  0  0  0  0
   -3.9011   -1.0399   -1.2451 H   0  0  0  0  0  0  0  0  0  0  0  0
   -1.8789   -1.3719   -0.1729 H   0  0  0  0  0  0  0  0  0  0  0  0
   -1.5756    0.3690   -0.2539 H   0  0  0  0  0  0  0  0  0  0  0  0
   -1.4657    0.4119    2.3026 H   0  0  0  0  0  0  0  0  0  0  0  0
   -1.7249   -1.3217    2.2926 H   0  0  0  0  0  0  0  0  0  0  0  0
    0.8762    0.9791    2.3209 H   0  0  0  0  0  0  0  0  0  0  0  0
    0.4192    1.0590    0.5930 H   0  0  0  0  0  0  0  0  0  0  0  0
    2.6498   -0.7749    1.6039 H   0  0  0  0  0  0  0  0  0  0  0  0
    2.9463    0.9244    1.1155 H   0  0  0  0  0  0  0  0  0  0  0  0
    3.3752   -1.3922   -1.7700 H   0  0  0  0  0  0  0  0  0  0  0  0
    3.8708   -1.6823   -0.1023 H   0  0  0  0  0  0  0  0  0  0  0  0
    5.5348   -0.2933   -1.4228 H   0  0  0  0  0  0  0  0  0  0  0  0
    4.9096    0.6027   -0.0288 H   0  0  0  0  0  0  0  0  0  0  0  0
    4.2832    0.9554   -1.6369 H   0  0  0  0  0  0  0  0  0  0  0  0
  1  2  1  0
  2  3  1  0
  3  4  1  0
  4  5  1  0
  5  6  1  0
  6  7  1  0
  7  8  1  0
  8  9  1  0
  9 10  1  0
 10 11  1  0
  1 12  1  0
  1 13  1  0
  1 14  1  0
  2 15  1  0
  2 16  1  0
  4 17  1  0
  4 18  1  0
  5 19  1  0
  5 20  1  0
  7 21  1  0
  7 22  1  0
  8 23  1  0
  8 24  1  0
 10 25  1  0
 10 26  1  0
 11 27  1  0
 11 28  1  0
 11 29  1  0
M  END
>  <anchor_atom_maps>  (93) 
1,2

>  <distance_A>  (93) 
8.726118123461877

>  <Rg_A>  (93) 
3.240912429559498

>  <energy_kcal_mol>  (93) 
49.230861970678085

>  <ensemble>  (93) 
ETKDGv3 unweighted sampling; not a thermodynamic population

$$$$
Flexible PEG synthetic attachment-point proxy 93
     RDKit          3D

 29 28  0  0  0  0  0  0  0  0999 V2000
    5.2295    0.5022   -0.0826 C   0  0  0  0  0  0  0  0  0  1  0  0
    3.9690    1.1323   -0.6477 C   0  0  0  0  0  0  0  0  0  0  0  0
    2.9242    0.1769   -0.8123 O   0  0  0  0  0  0  0  0  0  0  0  0
    2.3065   -0.2099    0.4210 C   0  0  0  0  0  0  0  0  0  0  0  0
    1.0384   -1.0076    0.1185 C   0  0  0  0  0  0  0  0  0  0  0  0
   -0.0122   -0.1065   -0.2457 O   0  0  0  0  0  0  0  0  0  0  0  0
   -1.1834   -0.8019   -0.6812 C   0  0  0  0  0  0  0  0  0  0  0  0
   -2.3060    0.2038   -0.9542 C   0  0  0  0  0  0  0  0  0  0  0  0
   -2.8384    0.7529    0.2573 O   0  0  0  0  0  0  0  0  0  0  0  0
   -3.8410   -0.0482    0.8755 C   0  0  0  0  0  0  0  0  0  0  0  0
   -5.2082    0.2617    0.2922 C   0  0  0  0  0  0  0  0  0  2  0  0
    5.5199   -0.3749   -0.6698 H   0  0  0  0  0  0  0  0  0  0  0  0
    5.0777    0.1656    0.9474 H   0  0  0  0  0  0  0  0  0  0  0  0
    6.0543    1.2209   -0.0870 H   0  0  0  0  0  0  0  0  0  0  0  0
    4.1901    1.5335   -1.6423 H   0  0  0  0  0  0  0  0  0  0  0  0
    3.6299    1.9701   -0.0281 H   0  0  0  0  0  0  0  0  0  0  0  0
    2.0609    0.6806    1.0102 H   0  0  0  0  0  0  0  0  0  0  0  0
    3.0047   -0.8430    0.9771 H   0  0  0  0  0  0  0  0  0  0  0  0
    0.7263   -1.5546    1.0146 H   0  0  0  0  0  0  0  0  0  0  0  0
    1.2185   -1.7124   -0.7012 H   0  0  0  0  0  0  0  0  0  0  0  0
   -1.4810   -1.5217    0.0880 H   0  0  0  0  0  0  0  0  0  0  0  0
   -0.9448   -1.3369   -1.6070 H   0  0  0  0  0  0  0  0  0  0  0  0
   -1.9077    1.0466   -1.5289 H   0  0  0  0  0  0  0  0  0  0  0  0
   -3.1035   -0.2606   -1.5432 H   0  0  0  0  0  0  0  0  0  0  0  0
   -3.6104   -1.1154    0.7934 H   0  0  0  0  0  0  0  0  0  0  0  0
   -3.8441    0.2066    1.9404 H   0  0  0  0  0  0  0  0  0  0  0  0
   -5.4240    1.3326    0.3669 H   0  0  0  0  0  0  0  0  0  0  0  0
   -5.2567    0.0002   -0.7690 H   0  0  0  0  0  0  0  0  0  0  0  0
   -5.9886   -0.2930    0.8211 H   0  0  0  0  0  0  0  0  0  0  0  0
  1  2  1  0
  2  3  1  0
  3  4  1  0
  4  5  1  0
  5  6  1  0
  6  7  1  0
  7  8  1  0
  8  9  1  0
  9 10  1  0
 10 11  1  0
  1 12  1  0
  1 13  1  0
  1 14  1  0
  2 15  1  0
  2 16  1  0
  4 17  1  0
  4 18  1  0
  5 19  1  0
  5 20  1  0
  7 21  1  0
  7 22  1  0
  8 23  1  0
  8 24  1  0
 10 25  1  0
 10 26  1  0
 11 27  1  0
 11 28  1  0
 11 29  1  0
M  END
>  <anchor_atom_maps>  (94) 
1,2

>  <distance_A>  (94) 
10.447204699065386

>  <Rg_A>  (94) 
3.385027317692509

>  <energy_kcal_mol>  (94) 
52.175349156029675

>  <ensemble>  (94) 
ETKDGv3 unweighted sampling; not a thermodynamic population

$$$$
Flexible PEG synthetic attachment-point proxy 94
     RDKit          3D

 29 28  0  0  0  0  0  0  0  0999 V2000
   -5.3544   -0.7535    0.5545 C   0  0  0  0  0  0  0  0  0  1  0  0
   -4.0430   -0.5573   -0.1808 C   0  0  0  0  0  0  0  0  0  0  0  0
   -2.9795   -0.6788    0.7612 O   0  0  0  0  0  0  0  0  0  0  0  0
   -1.6876   -0.5501    0.1674 C   0  0  0  0  0  0  0  0  0  0  0  0
   -1.2849    0.9137   -0.0250 C   0  0  0  0  0  0  0  0  0  0  0  0
    0.0114    1.0402   -0.6116 O   0  0  0  0  0  0  0  0  0  0  0  0
    1.0674    0.9378    0.3441 C   0  0  0  0  0  0  0  0  0  0  0  0
    2.4059    1.1554   -0.3608 C   0  0  0  0  0  0  0  0  0  0  0  0
    3.4968    1.0664    0.5557 O   0  0  0  0  0  0  0  0  0  0  0  0
    3.9840   -0.2595    0.7512 C   0  0  0  0  0  0  0  0  0  0  0  0
    4.9975   -0.6227   -0.3195 C   0  0  0  0  0  0  0  0  0  2  0  0
   -5.3831   -1.7364    1.0365 H   0  0  0  0  0  0  0  0  0  0  0  0
   -5.4674   -0.0064    1.3471 H   0  0  0  0  0  0  0  0  0  0  0  0
   -6.2023   -0.6717   -0.1313 H   0  0  0  0  0  0  0  0  0  0  0  0
   -3.9377   -1.3210   -0.9590 H   0  0  0  0  0  0  0  0  0  0  0  0
   -4.0279    0.4335   -0.6450 H   0  0  0  0  0  0  0  0  0  0  0  0
   -0.9802   -1.0379    0.8455 H   0  0  0  0  0  0  0  0  0  0  0  0
   -1.6306   -1.1039   -0.7776 H   0  0  0  0  0  0  0  0  0  0  0  0
   -1.9876    1.3991   -0.7095 H   0  0  0  0  0  0  0  0  0  0  0  0
   -1.3487    1.4700    0.9181 H   0  0  0  0  0  0  0  0  0  0  0  0
    0.9413    1.6931    1.1289 H   0  0  0  0  0  0  0  0  0  0  0  0
    1.0485   -0.0457    0.8235 H   0  0  0  0  0  0  0  0  0  0  0  0
    2.4195    2.1636   -0.7903 H   0  0  0  0  0  0  0  0  0  0  0  0
    2.5254    0.4644   -1.2032 H   0  0  0  0  0  0  0  0  0  0  0  0
    3.1648   -0.9855    0.7837 H   0  0  0  0  0  0  0  0  0  0  0  0
    4.4784   -0.2781    1.7279 H   0  0  0  0  0  0  0  0  0  0  0  0
    5.4315   -1.6071   -0.1223 H   0  0  0  0  0  0  0  0  0  0  0  0
    5.8032    0.1181   -0.3529 H   0  0  0  0  0  0  0  0  0  0  0  0
    4.5391   -0.6399   -1.3127 H   0  0  0  0  0  0  0  0  0  0  0  0
  1  2  1  0
  2  3  1  0
  3  4  1  0
  4  5  1  0
  5  6  1  0
  6  7  1  0
  7  8  1  0
  8  9  1  0
  9 10  1  0
 10 11  1  0
  1 12  1  0
  1 13  1  0
  1 14  1  0
  2 15  1  0
  2 16  1  0
  4 17  1  0
  4 18  1  0
  5 19  1  0
  5 20  1  0
  7 21  1  0
  7 22  1  0
  8 23  1  0
  8 24  1  0
 10 25  1  0
 10 26  1  0
 11 27  1  0
 11 28  1  0
 11 29  1  0
M  END
>  <anchor_atom_maps>  (95) 
1,2

>  <distance_A>  (95) 
10.389575333184496

>  <Rg_A>  (95) 
3.4601151945876936

>  <energy_kcal_mol>  (95) 
49.38648360029458

>  <ensemble>  (95) 
ETKDGv3 unweighted sampling; not a thermodynamic population

$$$$
Flexible PEG synthetic attachment-point proxy 95
     RDKit          3D

 29 28  0  0  0  0  0  0  0  0999 V2000
   -3.8431   -0.8172    0.4774 C   0  0  0  0  0  0  0  0  0  1  0  0
   -3.5827    0.6371    0.8267 C   0  0  0  0  0  0  0  0  0  0  0  0
   -2.1939    0.9490    0.7385 O   0  0  0  0  0  0  0  0  0  0  0  0
   -1.7650    1.2391   -0.5965 C   0  0  0  0  0  0  0  0  0  0  0  0
   -0.2643    1.5417   -0.6005 C   0  0  0  0  0  0  0  0  0  0  0  0
    0.5464    0.3605   -0.6382 O   0  0  0  0  0  0  0  0  0  0  0  0
    0.5341   -0.3732    0.5927 C   0  0  0  0  0  0  0  0  0  0  0  0
    1.6234   -1.4493    0.5613 C   0  0  0  0  0  0  0  0  0  0  0  0
    2.9130   -0.9762    0.9658 O   0  0  0  0  0  0  0  0  0  0  0  0
    3.5262   -0.0212    0.1037 C   0  0  0  0  0  0  0  0  0  0  0  0
    3.9058   -0.6020   -1.2468 C   0  0  0  0  0  0  0  0  0  2  0  0
   -3.2112   -1.4772    1.0806 H   0  0  0  0  0  0  0  0  0  0  0  0
   -3.6117   -1.0231   -0.5718 H   0  0  0  0  0  0  0  0  0  0  0  0
   -4.8918   -1.0739    0.6532 H   0  0  0  0  0  0  0  0  0  0  0  0
   -3.8818    0.8096    1.8658 H   0  0  0  0  0  0  0  0  0  0  0  0
   -4.1751    1.3120    0.1987 H   0  0  0  0  0  0  0  0  0  0  0  0
   -1.9780    0.3901   -1.2533 H   0  0  0  0  0  0  0  0  0  0  0  0
   -2.3102    2.1225   -0.9464 H   0  0  0  0  0  0  0  0  0  0  0  0
    0.0280    2.1613    0.2549 H   0  0  0  0  0  0  0  0  0  0  0  0
   -0.0235    2.0949   -1.5142 H   0  0  0  0  0  0  0  0  0  0  0  0
    0.6943    0.3045    1.4383 H   0  0  0  0  0  0  0  0  0  0  0  0
   -0.4367   -0.8685    0.6863 H   0  0  0  0  0  0  0  0  0  0  0  0
    1.6894   -1.9320   -0.4187 H   0  0  0  0  0  0  0  0  0  0  0  0
    1.3592   -2.2245    1.2887 H   0  0  0  0  0  0  0  0  0  0  0  0
    2.9028    0.8711   -0.0009 H   0  0  0  0  0  0  0  0  0  0  0  0
    4.4428    0.3021    0.6092 H   0  0  0  0  0  0  0  0  0  0  0  0
    3.0199   -0.8246   -1.8487 H   0  0  0  0  0  0  0  0  0  0  0  0
    4.5232    0.1053   -1.8085 H   0  0  0  0  0  0  0  0  0  0  0  0
    4.4604   -1.5378   -1.1245 H   0  0  0  0  0  0  0  0  0  0  0  0
  1  2  1  0
  2  3  1  0
  3  4  1  0
  4  5  1  0
  5  6  1  0
  6  7  1  0
  7  8  1  0
  8  9  1  0
  9 10  1  0
 10 11  1  0
  1 12  1  0
  1 13  1  0
  1 14  1  0
  2 15  1  0
  2 16  1  0
  4 17  1  0
  4 18  1  0
  5 19  1  0
  5 20  1  0
  7 21  1  0
  7 22  1  0
  8 23  1  0
  8 24  1  0
 10 25  1  0
 10 26  1  0
 11 27  1  0
 11 28  1  0
 11 29  1  0
M  END
>  <anchor_atom_maps>  (96) 
1,2

>  <distance_A>  (96) 
7.941354870015896

>  <Rg_A>  (96) 
2.917169221494612

>  <energy_kcal_mol>  (96) 
48.970476088016554

>  <ensemble>  (96) 
ETKDGv3 unweighted sampling; not a thermodynamic population

$$$$
Flexible PEG synthetic attachment-point proxy 96
     RDKit          3D

 29 28  0  0  0  0  0  0  0  0999 V2000
   -4.0252    1.5386   -0.7496 C   0  0  0  0  0  0  0  0  0  1  0  0
   -3.8263    0.0623   -0.4551 C   0  0  0  0  0  0  0  0  0  0  0  0
   -2.9119   -0.1179    0.6248 O   0  0  0  0  0  0  0  0  0  0  0  0
   -1.5400   -0.1166    0.2284 C   0  0  0  0  0  0  0  0  0  0  0  0
   -1.0822   -1.5140   -0.1954 C   0  0  0  0  0  0  0  0  0  0  0  0
    0.2871   -1.5179   -0.5946 O   0  0  0  0  0  0  0  0  0  0  0  0
    1.1889   -1.6933    0.5025 C   0  0  0  0  0  0  0  0  0  0  0  0
    2.6296   -1.5157    0.0142 C   0  0  0  0  0  0  0  0  0  0  0  0
    2.9226   -0.1664   -0.3658 O   0  0  0  0  0  0  0  0  0  0  0  0
    3.1924    0.6914    0.7385 C   0  0  0  0  0  0  0  0  0  0  0  0
    3.5377    2.0659    0.1994 C   0  0  0  0  0  0  0  0  0  2  0  0
   -3.0971    2.0051   -1.0930 H   0  0  0  0  0  0  0  0  0  0  0  0
   -4.3347    2.0725    0.1549 H   0  0  0  0  0  0  0  0  0  0  0  0
   -4.7883    1.6791   -1.5206 H   0  0  0  0  0  0  0  0  0  0  0  0
   -4.7825   -0.3677   -0.1395 H   0  0  0  0  0  0  0  0  0  0  0  0
   -3.5016   -0.4797   -1.3493 H   0  0  0  0  0  0  0  0  0  0  0  0
   -0.9589    0.2123    1.0959 H   0  0  0  0  0  0  0  0  0  0  0  0
   -1.3444    0.6170   -0.5620 H   0  0  0  0  0  0  0  0  0  0  0  0
   -1.6687   -1.8443   -1.0589 H   0  0  0  0  0  0  0  0  0  0  0  0
   -1.2675   -2.2502    0.5965 H   0  0  0  0  0  0  0  0  0  0  0  0
    0.9566   -0.9781    1.2956 H   0  0  0  0  0  0  0  0  0  0  0  0
    1.0628   -2.7093    0.8926 H   0  0  0  0  0  0  0  0  0  0  0  0
    3.3428   -1.8493    0.7762 H   0  0  0  0  0  0  0  0  0  0  0  0
    2.7839   -2.1274   -0.8811 H   0  0  0  0  0  0  0  0  0  0  0  0
    4.0360    0.2984    1.3162 H   0  0  0  0  0  0  0  0  0  0  0  0
    2.3154    0.7647    1.3883 H   0  0  0  0  0  0  0  0  0  0  0  0
    3.7569    2.7610    1.0147 H   0  0  0  0  0  0  0  0  0  0  0  0
    4.4076    2.0130   -0.4636 H   0  0  0  0  0  0  0  0  0  0  0  0
    2.7089    2.4666   -0.3936 H   0  0  0  0  0  0  0  0  0  0  0  0
  1  2  1  0
  2  3  1  0
  3  4  1  0
  4  5  1  0
  5  6  1  0
  6  7  1  0
  7  8  1  0
  8  9  1  0
  9 10  1  0
 10 11  1  0
  1 12  1  0
  1 13  1  0
  1 14  1  0
  2 15  1  0
  2 16  1  0
  4 17  1  0
  4 18  1  0
  5 19  1  0
  5 20  1  0
  7 21  1  0
  7 22  1  0
  8 23  1  0
  8 24  1  0
 10 25  1  0
 10 26  1  0
 11 27  1  0
 11 28  1  0
 11 29  1  0
M  END
>  <anchor_atom_maps>  (97) 
1,2

>  <distance_A>  (97) 
7.640494477584184

>  <Rg_A>  (97) 
3.0923702138293074

>  <energy_kcal_mol>  (97) 
51.379553398994126

>  <ensemble>  (97) 
ETKDGv3 unweighted sampling; not a thermodynamic population

$$$$
Flexible PEG synthetic attachment-point proxy 97
     RDKit          3D

 29 28  0  0  0  0  0  0  0  0999 V2000
   -4.9216    1.1777   -0.5676 C   0  0  0  0  0  0  0  0  0  1  0  0
   -3.7543    0.5385    0.1587 C   0  0  0  0  0  0  0  0  0  0  0  0
   -3.5248   -0.7491   -0.4082 O   0  0  0  0  0  0  0  0  0  0  0  0
   -2.4438   -1.4464    0.2111 C   0  0  0  0  0  0  0  0  0  0  0  0
   -1.0943   -1.0545   -0.3893 C   0  0  0  0  0  0  0  0  0  0  0  0
   -0.0604   -1.7966    0.2576 O   0  0  0  0  0  0  0  0  0  0  0  0
    1.2323   -1.5520   -0.2983 C   0  0  0  0  0  0  0  0  0  0  0  0
    1.8718   -0.2851    0.2668 C   0  0  0  0  0  0  0  0  0  0  0  0
    3.1727   -0.1223   -0.2972 O   0  0  0  0  0  0  0  0  0  0  0  0
    3.8337    1.0277    0.2256 C   0  0  0  0  0  0  0  0  0  0  0  0
    5.1994    1.1318   -0.4234 C   0  0  0  0  0  0  0  0  0  2  0  0
   -5.8188    0.5564   -0.4778 H   0  0  0  0  0  0  0  0  0  0  0  0
   -5.1373    2.1701   -0.1620 H   0  0  0  0  0  0  0  0  0  0  0  0
   -4.7050    1.2722   -1.6368 H   0  0  0  0  0  0  0  0  0  0  0  0
   -3.9925    0.4362    1.2231 H   0  0  0  0  0  0  0  0  0  0  0  0
   -2.8645    1.1661    0.0488 H   0  0  0  0  0  0  0  0  0  0  0  0
   -2.6069   -2.5173    0.0438 H   0  0  0  0  0  0  0  0  0  0  0  0
   -2.4528   -1.3049    1.2988 H   0  0  0  0  0  0  0  0  0  0  0  0
   -1.0980   -1.2677   -1.4649 H   0  0  0  0  0  0  0  0  0  0  0  0
   -0.9199    0.0181   -0.2628 H   0  0  0  0  0  0  0  0  0  0  0  0
    1.1917   -1.5235   -1.3941 H   0  0  0  0  0  0  0  0  0  0  0  0
    1.8642   -2.4102   -0.0423 H   0  0  0  0  0  0  0  0  0  0  0  0
    1.2598    0.5922    0.0315 H   0  0  0  0  0  0  0  0  0  0  0  0
    1.9398   -0.3623    1.3585 H   0  0  0  0  0  0  0  0  0  0  0  0
    3.2463    1.9253    0.0033 H   0  0  0  0  0  0  0  0  0  0  0  0
    3.9439    0.9295    1.3111 H   0  0  0  0  0  0  0  0  0  0  0  0
    5.7436    2.0037   -0.0499 H   0  0  0  0  0  0  0  0  0  0  0  0
    5.1041    1.2138   -1.5112 H   0  0  0  0  0  0  0  0  0  0  0  0
    5.7914    0.2327   -0.2225 H   0  0  0  0  0  0  0  0  0  0  0  0
  1  2  1  0
  2  3  1  0
  3  4  1  0
  4  5  1  0
  5  6  1  0
  6  7  1  0
  7  8  1  0
  8  9  1  0
  9 10  1  0
 10 11  1  0
  1 12  1  0
  1 13  1  0
  1 14  1  0
  2 15  1  0
  2 16  1  0
  4 17  1  0
  4 18  1  0
  5 19  1  0
  5 20  1  0
  7 21  1  0
  7 22  1  0
  8 23  1  0
  8 24  1  0
 10 25  1  0
 10 26  1  0
 11 27  1  0
 11 28  1  0
 11 29  1  0
M  END
>  <anchor_atom_maps>  (98) 
1,2

>  <distance_A>  (98) 
10.122113132916736

>  <Rg_A>  (98) 
3.468817719557973

>  <energy_kcal_mol>  (98) 
46.63358432229525

>  <ensemble>  (98) 
ETKDGv3 unweighted sampling; not a thermodynamic population

$$$$
Flexible PEG synthetic attachment-point proxy 98
     RDKit          3D

 29 28  0  0  0  0  0  0  0  0999 V2000
   -5.2829   -0.2948    0.0150 C   0  0  0  0  0  0  0  0  0  1  0  0
   -4.2396    0.6849   -0.4922 C   0  0  0  0  0  0  0  0  0  0  0  0
   -3.3455    0.0447   -1.4002 O   0  0  0  0  0  0  0  0  0  0  0  0
   -2.2568   -0.6265   -0.7659 C   0  0  0  0  0  0  0  0  0  0  0  0
   -1.0828    0.3212   -0.5270 C   0  0  0  0  0  0  0  0  0  0  0  0
   -0.0170   -0.3941    0.0980 O   0  0  0  0  0  0  0  0  0  0  0  0
    1.1196    0.4425    0.3139 C   0  0  0  0  0  0  0  0  0  0  0  0
    2.2138   -0.3609    1.0145 C   0  0  0  0  0  0  0  0  0  0  0  0
    3.3696    0.4402    1.2607 O   0  0  0  0  0  0  0  0  0  0  0  0
    4.2944    0.4722    0.1756 C   0  0  0  0  0  0  0  0  0  0  0  0
    5.2390   -0.7150    0.2396 C   0  0  0  0  0  0  0  0  0  2  0  0
   -6.0168    0.2149    0.6460 H   0  0  0  0  0  0  0  0  0  0  0  0
   -5.8055   -0.7676   -0.8230 H   0  0  0  0  0  0  0  0  0  0  0  0
   -4.8244   -1.0986    0.5987 H   0  0  0  0  0  0  0  0  0  0  0  0
   -3.6993    1.1530    0.3373 H   0  0  0  0  0  0  0  0  0  0  0  0
   -4.7434    1.4826   -1.0479 H   0  0  0  0  0  0  0  0  0  0  0  0
   -1.9316   -1.4302   -1.4363 H   0  0  0  0  0  0  0  0  0  0  0  0
   -2.5666   -1.1145    0.1653 H   0  0  0  0  0  0  0  0  0  0  0  0
   -0.7469    0.7393   -1.4835 H   0  0  0  0  0  0  0  0  0  0  0  0
   -1.3895    1.1568    0.1118 H   0  0  0  0  0  0  0  0  0  0  0  0
    0.8420    1.3040    0.9331 H   0  0  0  0  0  0  0  0  0  0  0  0
    1.4819    0.8261   -0.6463 H   0  0  0  0  0  0  0  0  0  0  0  0
    1.8365   -0.6997    1.9860 H   0  0  0  0  0  0  0  0  0  0  0  0
    2.4601   -1.2682    0.4511 H   0  0  0  0  0  0  0  0  0  0  0  0
    3.7774    0.5156   -0.7888 H   0  0  0  0  0  0  0  0  0  0  0  0
    4.8764    1.3938    0.2781 H   0  0  0  0  0  0  0  0  0  0  0  0
    5.9992   -0.6461   -0.5438 H   0  0  0  0  0  0  0  0  0  0  0  0
    4.7008   -1.6596    0.1168 H   0  0  0  0  0  0  0  0  0  0  0  0
    5.7381   -0.7566    1.2133 H   0  0  0  0  0  0  0  0  0  0  0  0
  1  2  1  0
  2  3  1  0
  3  4  1  0
  4  5  1  0
  5  6  1  0
  6  7  1  0
  7  8  1  0
  8  9  1  0
  9 10  1  0
 10 11  1  0
  1 12  1  0
  1 13  1  0
  1 14  1  0
  2 15  1  0
  2 16  1  0
  4 17  1  0
  4 18  1  0
  5 19  1  0
  5 20  1  0
  7 21  1  0
  7 22  1  0
  8 23  1  0
  8 24  1  0
 10 25  1  0
 10 26  1  0
 11 27  1  0
 11 28  1  0
 11 29  1  0
M  END
>  <anchor_atom_maps>  (99) 
1,2

>  <distance_A>  (99) 
10.532669357992242

>  <Rg_A>  (99) 
3.5547684239648016

>  <energy_kcal_mol>  (99) 
49.38099053968436

>  <ensemble>  (99) 
ETKDGv3 unweighted sampling; not a thermodynamic population

$$$$
Flexible PEG synthetic attachment-point proxy 99
     RDKit          3D

 29 28  0  0  0  0  0  0  0  0999 V2000
    4.9539    0.0892   -1.5408 C   0  0  0  0  0  0  0  0  0  1  0  0
    4.1828   -0.6024   -0.4343 C   0  0  0  0  0  0  0  0  0  0  0  0
    2.7896   -0.3990   -0.6608 O   0  0  0  0  0  0  0  0  0  0  0  0
    1.9982   -1.0254    0.3484 C   0  0  0  0  0  0  0  0  0  0  0  0
    0.5221   -0.7788    0.0550 C   0  0  0  0  0  0  0  0  0  0  0  0
   -0.2700   -1.3981    1.0680 O   0  0  0  0  0  0  0  0  0  0  0  0
   -1.6729   -1.2416    0.8504 C   0  0  0  0  0  0  0  0  0  0  0  0
   -2.1863    0.1141    1.3420 C   0  0  0  0  0  0  0  0  0  0  0  0
   -3.5999    0.2275    1.1751 O   0  0  0  0  0  0  0  0  0  0  0  0
   -4.0000    0.6747   -0.1185 C   0  0  0  0  0  0  0  0  0  0  0  0
   -3.9843    2.1913   -0.1915 C   0  0  0  0  0  0  0  0  0  2  0  0
    4.7270    1.1603   -1.5576 H   0  0  0  0  0  0  0  0  0  0  0  0
    4.6684   -0.3123   -2.5188 H   0  0  0  0  0  0  0  0  0  0  0  0
    6.0313   -0.0415   -1.4063 H   0  0  0  0  0  0  0  0  0  0  0  0
    4.4654   -0.1804    0.5364 H   0  0  0  0  0  0  0  0  0  0  0  0
    4.4058   -1.6750   -0.4393 H   0  0  0  0  0  0  0  0  0  0  0  0
    2.1980   -2.1034    0.3690 H   0  0  0  0  0  0  0  0  0  0  0  0
    2.2542   -0.6181    1.3338 H   0  0  0  0  0  0  0  0  0  0  0  0
    0.3307    0.2991    0.0210 H   0  0  0  0  0  0  0  0  0  0  0  0
    0.2678   -1.1940   -0.9275 H   0  0  0  0  0  0  0  0  0  0  0  0
   -1.9221   -1.4174   -0.2023 H   0  0  0  0  0  0  0  0  0  0  0  0
   -2.1802   -2.0330    1.4140 H   0  0  0  0  0  0  0  0  0  0  0  0
   -1.9744    0.2015    2.4137 H   0  0  0  0  0  0  0  0  0  0  0  0
   -1.6639    0.9477    0.8624 H   0  0  0  0  0  0  0  0  0  0  0  0
   -5.0249    0.3232   -0.2758 H   0  0  0  0  0  0  0  0  0  0  0  0
   -3.3772    0.2347   -0.9042 H   0  0  0  0  0  0  0  0  0  0  0  0
   -4.5953    2.6210    0.6092 H   0  0  0  0  0  0  0  0  0  0  0  0
   -4.3721    2.5355   -1.1546 H   0  0  0  0  0  0  0  0  0  0  0  0
   -2.9716    2.5858   -0.0662 H   0  0  0  0  0  0  0  0  0  0  0  0
  1  2  1  0
  2  3  1  0
  3  4  1  0
  4  5  1  0
  5  6  1  0
  6  7  1  0
  7  8  1  0
  8  9  1  0
  9 10  1  0
 10 11  1  0
  1 12  1  0
  1 13  1  0
  1 14  1  0
  2 15  1  0
  2 16  1  0
  4 17  1  0
  4 18  1  0
  5 19  1  0
  5 20  1  0
  7 21  1  0
  7 22  1  0
  8 23  1  0
  8 24  1  0
 10 25  1  0
 10 26  1  0
 11 27  1  0
 11 28  1  0
 11 29  1  0
M  END
>  <anchor_atom_maps>  (100) 
1,2

>  <distance_A>  (100) 
9.280707237382822

>  <Rg_A>  (100) 
3.420600928134845

>  <energy_kcal_mol>  (100) 
47.79979194929868

>  <ensemble>  (100) 
ETKDGv3 unweighted sampling; not a thermodynamic population

$$$$
