Rigid alkynyl synthetic attachment-point proxy 0
     RDKit          3D

 14 13  0  0  0  0  0  0  0  0999 V2000
    2.0681   -2.6588   -3.2315 C   0  0  0  0  0  0  0  0  0  1  0  0
    1.4385   -1.8493   -2.1894 C   0  0  0  0  0  0  0  0  0  0  0  0
    0.9215   -1.1847   -1.3337 C   0  0  0  0  0  0  0  0  0  0  0  0
    0.2584   -0.3322   -0.2361 C   0  0  0  0  0  0  0  0  0  0  0  0
   -0.2584    0.3322    0.6192 C   0  0  0  0  0  0  0  0  0  0  0  0
   -0.9215    1.1847    1.7168 C   0  0  0  0  0  0  0  0  0  0  0  0
   -1.4385    1.8493    2.5725 C   0  0  0  0  0  0  0  0  0  0  0  0
   -2.0681    2.6588    3.6146 C   0  0  0  0  0  0  0  0  0  2  0  0
    3.1500   -2.4963   -3.2502 H   0  0  0  0  0  0  0  0  0  0  0  0
    1.6694   -2.4024   -4.2177 H   0  0  0  0  0  0  0  0  0  0  0  0
    1.8879   -3.7241   -3.0591 H   0  0  0  0  0  0  0  0  0  0  0  0
   -3.0192    3.0719    3.2653 H   0  0  0  0  0  0  0  0  0  0  0  0
   -1.4216    3.4929    3.9035 H   0  0  0  0  0  0  0  0  0  0  0  0
   -2.2666    2.0582    4.5074 H   0  0  0  0  0  0  0  0  0  0  0  0
  1  2  1  0
  2  3  3  0
  3  4  1  0
  4  5  3  0
  5  6  1  0
  6  7  3  0
  7  8  1  0
  1  9  1  0
  1 10  1  0
  1 11  1  0
  8 12  1  0
  8 13  1  0
  8 14  1  0
M  END
>  <anchor_atom_maps>  (1) 
1,2

>  <distance_A>  (1) 
9.604953540157616

>  <Rg_A>  (1) 
3.296746260167942

>  <energy_kcal_mol>  (1) 
-0.12237371253289668

>  <ensemble>  (1) 
ETKDGv3 unweighted sampling; not a thermodynamic population

$$$$
Rigid alkynyl synthetic attachment-point proxy 1
     RDKit          3D

 14 13  0  0  0  0  0  0  0  0999 V2000
    3.2749   -3.5126   -0.0576 C   0  0  0  0  0  0  0  0  0  1  0  0
    2.2778   -2.4432   -0.0539 C   0  0  0  0  0  0  0  0  0  0  0  0
    1.4592   -1.5652   -0.0509 C   0  0  0  0  0  0  0  0  0  0  0  0
    0.4091   -0.4389   -0.0470 C   0  0  0  0  0  0  0  0  0  0  0  0
   -0.4092    0.4389   -0.0440 C   0  0  0  0  0  0  0  0  0  0  0  0
   -1.4593    1.5652   -0.0401 C   0  0  0  0  0  0  0  0  0  0  0  0
   -2.2778    2.4432   -0.0371 C   0  0  0  0  0  0  0  0  0  0  0  0
   -3.2749    3.5127   -0.0334 C   0  0  0  0  0  0  0  0  0  2  0  0
    4.2574   -3.1279   -0.3473 H   0  0  0  0  0  0  0  0  0  0  0  0
    3.3662   -3.9632    0.9353 H   0  0  0  0  0  0  0  0  0  0  0  0
    2.9975   -4.3010   -0.7638 H   0  0  0  0  0  0  0  0  0  0  0  0
   -4.2841    3.1043   -0.1423 H   0  0  0  0  0  0  0  0  0  0  0  0
   -3.1003    4.2104   -0.8579 H   0  0  0  0  0  0  0  0  0  0  0  0
   -3.2365    4.0774    0.9030 H   0  0  0  0  0  0  0  0  0  0  0  0
  1  2  1  0
  2  3  3  0
  3  4  1  0
  4  5  3  0
  5  6  1  0
  6  7  3  0
  7  8  1  0
  1  9  1  0
  1 10  1  0
  1 11  1  0
  8 12  1  0
  8 13  1  0
  8 14  1  0
M  END
>  <anchor_atom_maps>  (2) 
1,2

>  <distance_A>  (2) 
9.604953919040911

>  <Rg_A>  (2) 
3.2967463285118086

>  <energy_kcal_mol>  (2) 
-0.12237371349798018

>  <ensemble>  (2) 
ETKDGv3 unweighted sampling; not a thermodynamic population

$$$$
Rigid alkynyl synthetic attachment-point proxy 2
     RDKit          3D

 14 13  0  0  0  0  0  0  0  0999 V2000
   -4.7936    0.2109    0.2039 C   0  0  0  0  0  0  0  0  0  1  0  0
   -3.3342    0.1467    0.1428 C   0  0  0  0  0  0  0  0  0  0  0  0
   -2.1360    0.0940    0.0926 C   0  0  0  0  0  0  0  0  0  0  0  0
   -0.5989    0.0264    0.0283 C   0  0  0  0  0  0  0  0  0  0  0  0
    0.5989   -0.0263   -0.0219 C   0  0  0  0  0  0  0  0  0  0  0  0
    2.1360   -0.0940   -0.0862 C   0  0  0  0  0  0  0  0  0  0  0  0
    3.3342   -0.1467   -0.1364 C   0  0  0  0  0  0  0  0  0  0  0  0
    4.7936   -0.2109   -0.1975 C   0  0  0  0  0  0  0  0  0  2  0  0
   -5.1246    1.1746    0.6026 H   0  0  0  0  0  0  0  0  0  0  0  0
   -5.2307    0.0875   -0.7916 H   0  0  0  0  0  0  0  0  0  0  0  0
   -5.1913   -0.5780    0.8493 H   0  0  0  0  0  0  0  0  0  0  0  0
    5.2136   -0.4615    0.7813 H   0  0  0  0  0  0  0  0  0  0  0  0
    5.1202   -0.9726   -0.9119 H   0  0  0  0  0  0  0  0  0  0  0  0
    5.2128    0.7500   -0.5106 H   0  0  0  0  0  0  0  0  0  0  0  0
  1  2  1  0
  2  3  3  0
  3  4  1  0
  4  5  3  0
  5  6  1  0
  6  7  3  0
  7  8  1  0
  1  9  1  0
  1 10  1  0
  1 11  1  0
  8 12  1  0
  8 13  1  0
  8 14  1  0
M  END
>  <anchor_atom_maps>  (3) 
1,2

>  <distance_A>  (3) 
9.604954086494265

>  <Rg_A>  (3) 
3.2967464162474522

>  <energy_kcal_mol>  (3) 
-0.12237371404300787

>  <ensemble>  (3) 
ETKDGv3 unweighted sampling; not a thermodynamic population

$$$$
Rigid alkynyl synthetic attachment-point proxy 3
     RDKit          3D

 14 13  0  0  0  0  0  0  0  0999 V2000
    4.5425   -1.0577   -1.2226 C   0  0  0  0  0  0  0  0  0  1  0  0
    3.1596   -0.7633   -0.8503 C   0  0  0  0  0  0  0  0  0  0  0  0
    2.0241   -0.5217   -0.5447 C   0  0  0  0  0  0  0  0  0  0  0  0
    0.5676   -0.2117   -0.1527 C   0  0  0  0  0  0  0  0  0  0  0  0
   -0.5675    0.0298    0.1528 C   0  0  0  0  0  0  0  0  0  0  0  0
   -2.0241    0.3398    0.5448 C   0  0  0  0  0  0  0  0  0  0  0  0
   -3.1595    0.5814    0.8504 C   0  0  0  0  0  0  0  0  0  0  0  0
   -4.5425    0.8757    1.2226 C   0  0  0  0  0  0  0  0  0  2  0  0
    4.7187   -2.1374   -1.2436 H   0  0  0  0  0  0  0  0  0  0  0  0
    5.2412   -0.6138   -0.5070 H   0  0  0  0  0  0  0  0  0  0  0  0
    4.7724   -0.6570   -2.2144 H   0  0  0  0  0  0  0  0  0  0  0  0
   -5.2388    0.4823    0.4758 H   0  0  0  0  0  0  0  0  0  0  0  0
   -4.7902    0.4246    2.1882 H   0  0  0  0  0  0  0  0  0  0  0  0
   -4.7033    1.9551    1.3011 H   0  0  0  0  0  0  0  0  0  0  0  0
  1  2  1  0
  2  3  3  0
  3  4  1  0
  4  5  3  0
  5  6  1  0
  6  7  3  0
  7  8  1  0
  1  9  1  0
  1 10  1  0
  1 11  1  0
  8 12  1  0
  8 13  1  0
  8 14  1  0
M  END
>  <anchor_atom_maps>  (4) 
1,2

>  <distance_A>  (4) 
9.604953835717259

>  <Rg_A>  (4) 
3.2967463239873953

>  <energy_kcal_mol>  (4) 
-0.12237371226106031

>  <ensemble>  (4) 
ETKDGv3 unweighted sampling; not a thermodynamic population

$$$$
Rigid alkynyl synthetic attachment-point proxy 4
     RDKit          3D

 14 13  0  0  0  0  0  0  0  0999 V2000
    4.7236    0.6837    0.6079 C   0  0  0  0  0  0  0  0  0  1  0  0
    3.2855    0.4755    0.4456 C   0  0  0  0  0  0  0  0  0  0  0  0
    2.1048    0.3046    0.3124 C   0  0  0  0  0  0  0  0  0  0  0  0
    0.5902    0.0854    0.1415 C   0  0  0  0  0  0  0  0  0  0  0  0
   -0.5902   -0.0854    0.0083 C   0  0  0  0  0  0  0  0  0  0  0  0
   -2.1048   -0.3046   -0.1626 C   0  0  0  0  0  0  0  0  0  0  0  0
   -3.2855   -0.4755   -0.2958 C   0  0  0  0  0  0  0  0  0  0  0  0
   -4.7236   -0.6837   -0.4581 C   0  0  0  0  0  0  0  0  0  2  0  0
    5.0624    0.3181    1.5820 H   0  0  0  0  0  0  0  0  0  0  0  0
    4.9733    1.7467    0.5388 H   0  0  0  0  0  0  0  0  0  0  0  0
    5.2837    0.1524   -0.1675 H   0  0  0  0  0  0  0  0  0  0  0  0
   -5.2891   -0.0459    0.2279 H   0  0  0  0  0  0  0  0  0  0  0  0
   -5.0384   -0.4470   -1.4789 H   0  0  0  0  0  0  0  0  0  0  0  0
   -4.9919   -1.7244   -0.2529 H   0  0  0  0  0  0  0  0  0  0  0  0
  1  2  1  0
  2  3  3  0
  3  4  1  0
  4  5  3  0
  5  6  1  0
  6  7  3  0
  7  8  1  0
  1  9  1  0
  1 10  1  0
  1 11  1  0
  8 12  1  0
  8 13  1  0
  8 14  1  0
M  END
>  <anchor_atom_maps>  (5) 
1,2

>  <distance_A>  (5) 
9.604954053108951

>  <Rg_A>  (5) 
3.2967463998072732

>  <energy_kcal_mol>  (5) 
-0.12237371542622927

>  <ensemble>  (5) 
ETKDGv3 unweighted sampling; not a thermodynamic population

$$$$
Rigid alkynyl synthetic attachment-point proxy 5
     RDKit          3D

 14 13  0  0  0  0  0  0  0  0999 V2000
   -4.7776    0.4357    0.3692 C   0  0  0  0  0  0  0  0  0  1  0  0
   -3.3231    0.3030    0.3022 C   0  0  0  0  0  0  0  0  0  0  0  0
   -2.1288    0.1941    0.2472 C   0  0  0  0  0  0  0  0  0  0  0  0
   -0.5969    0.0544    0.1766 C   0  0  0  0  0  0  0  0  0  0  0  0
    0.5969   -0.0545    0.1217 C   0  0  0  0  0  0  0  0  0  0  0  0
    2.1288   -0.1941    0.0512 C   0  0  0  0  0  0  0  0  0  0  0  0
    3.3231   -0.3030   -0.0037 C   0  0  0  0  0  0  0  0  0  0  0  0
    4.7776   -0.4357   -0.0706 C   0  0  0  0  0  0  0  0  0  2  0  0
   -5.1495    0.1497    1.3577 H   0  0  0  0  0  0  0  0  0  0  0  0
   -5.2616   -0.2052   -0.3739 H   0  0  0  0  0  0  0  0  0  0  0  0
   -5.0836    1.4685    0.1772 H   0  0  0  0  0  0  0  0  0  0  0  0
    5.2556    0.5465   -0.1336 H   0  0  0  0  0  0  0  0  0  0  0  0
    5.0757   -1.0150   -0.9497 H   0  0  0  0  0  0  0  0  0  0  0  0
    5.1634   -0.9445    0.8179 H   0  0  0  0  0  0  0  0  0  0  0  0
  1  2  1  0
  2  3  3  0
  3  4  1  0
  4  5  3  0
  5  6  1  0
  6  7  3  0
  7  8  1  0
  1  9  1  0
  1 10  1  0
  1 11  1  0
  8 12  1  0
  8 13  1  0
  8 14  1  0
M  END
>  <anchor_atom_maps>  (6) 
1,2

>  <distance_A>  (6) 
9.604953909013894

>  <Rg_A>  (6) 
3.2967463523467337

>  <energy_kcal_mol>  (6) 
-0.1223737007798016

>  <ensemble>  (6) 
ETKDGv3 unweighted sampling; not a thermodynamic population

$$$$
Rigid alkynyl synthetic attachment-point proxy 6
     RDKit          3D

 14 13  0  0  0  0  0  0  0  0999 V2000
   -2.1044    1.4463    4.1709 C   0  0  0  0  0  0  0  0  0  1  0  0
   -1.4637    1.1075    2.9011 C   0  0  0  0  0  0  0  0  0  0  0  0
   -0.9377    0.8293    1.8585 C   0  0  0  0  0  0  0  0  0  0  0  0
   -0.2629    0.4725    0.5211 C   0  0  0  0  0  0  0  0  0  0  0  0
    0.2629    0.1944   -0.5211 C   0  0  0  0  0  0  0  0  0  0  0  0
    0.9377   -0.1624   -1.8585 C   0  0  0  0  0  0  0  0  0  0  0  0
    1.4637   -0.4406   -2.9011 C   0  0  0  0  0  0  0  0  0  0  0  0
    2.1044   -0.7795   -4.1709 C   0  0  0  0  0  0  0  0  0  2  0  0
   -1.6192    0.9267    5.0026 H   0  0  0  0  0  0  0  0  0  0  0  0
   -2.0451    2.5221    4.3620 H   0  0  0  0  0  0  0  0  0  0  0  0
   -3.1606    1.1609    4.1624 H   0  0  0  0  0  0  0  0  0  0  0  0
    2.6705    0.0719   -4.5607 H   0  0  0  0  0  0  0  0  0  0  0  0
    2.7957   -1.6184   -4.0465 H   0  0  0  0  0  0  0  0  0  0  0  0
    1.3586   -1.0625   -4.9199 H   0  0  0  0  0  0  0  0  0  0  0  0
  1  2  1  0
  2  3  3  0
  3  4  1  0
  4  5  3  0
  5  6  1  0
  6  7  3  0
  7  8  1  0
  1  9  1  0
  1 10  1  0
  1 11  1  0
  8 12  1  0
  8 13  1  0
  8 14  1  0
M  END
>  <anchor_atom_maps>  (7) 
1,2

>  <distance_A>  (7) 
9.604953686554856

>  <Rg_A>  (7) 
3.296746323144531

>  <energy_kcal_mol>  (7) 
-0.12237371661340787

>  <ensemble>  (7) 
ETKDGv3 unweighted sampling; not a thermodynamic population

$$$$
Rigid alkynyl synthetic attachment-point proxy 7
     RDKit          3D

 14 13  0  0  0  0  0  0  0  0999 V2000
    0.9613    2.7362   -3.9000 C   0  0  0  0  0  0  0  0  0  1  0  0
    0.6686    1.9347   -2.7126 C   0  0  0  0  0  0  0  0  0  0  0  0
    0.4283    1.2767   -1.7378 C   0  0  0  0  0  0  0  0  0  0  0  0
    0.1201    0.4326   -0.4873 C   0  0  0  0  0  0  0  0  0  0  0  0
   -0.1201   -0.2251    0.4873 C   0  0  0  0  0  0  0  0  0  0  0  0
   -0.4283   -1.0692    1.7378 C   0  0  0  0  0  0  0  0  0  0  0  0
   -0.6686   -1.7272    2.7126 C   0  0  0  0  0  0  0  0  0  0  0  0
   -0.9613   -2.5287    3.9000 C   0  0  0  0  0  0  0  0  0  2  0  0
    0.3813    2.3856   -4.7590 H   0  0  0  0  0  0  0  0  0  0  0  0
    2.0225    2.6747   -4.1593 H   0  0  0  0  0  0  0  0  0  0  0  0
    0.7139    3.7884   -3.7301 H   0  0  0  0  0  0  0  0  0  0  0  0
   -0.2583   -3.3622    3.9900 H   0  0  0  0  0  0  0  0  0  0  0  0
   -0.8862   -1.9219    4.8074 H   0  0  0  0  0  0  0  0  0  0  0  0
   -1.9732   -2.9420    3.8510 H   0  0  0  0  0  0  0  0  0  0  0  0
  1  2  1  0
  2  3  3  0
  3  4  1  0
  4  5  3  0
  5  6  1  0
  6  7  3  0
  7  8  1  0
  1  9  1  0
  1 10  1  0
  1 11  1  0
  8 12  1  0
  8 13  1  0
  8 14  1  0
M  END
>  <anchor_atom_maps>  (8) 
1,2

>  <distance_A>  (8) 
9.604953771456724

>  <Rg_A>  (8) 
3.296746356712021

>  <energy_kcal_mol>  (8) 
-0.1223737188580738

>  <ensemble>  (8) 
ETKDGv3 unweighted sampling; not a thermodynamic population

$$$$
Rigid alkynyl synthetic attachment-point proxy 8
     RDKit          3D

 14 13  0  0  0  0  0  0  0  0999 V2000
    4.2232   -0.5709    2.5094 C   0  0  0  0  0  0  0  0  0  1  0  0
    2.9375   -0.3971    1.8353 C   0  0  0  0  0  0  0  0  0  0  0  0
    1.8818   -0.2544    1.2818 C   0  0  0  0  0  0  0  0  0  0  0  0
    0.5276   -0.0713    0.5719 C   0  0  0  0  0  0  0  0  0  0  0  0
   -0.5277    0.0713    0.0187 C   0  0  0  0  0  0  0  0  0  0  0  0
   -1.8818    0.2544   -0.6913 C   0  0  0  0  0  0  0  0  0  0  0  0
   -2.9375    0.3971   -1.2447 C   0  0  0  0  0  0  0  0  0  0  0  0
   -4.2232    0.5709   -1.9188 C   0  0  0  0  0  0  0  0  0  2  0  0
    4.1080   -0.4901    3.5944 H   0  0  0  0  0  0  0  0  0  0  0  0
    4.9383    0.1917    2.1864 H   0  0  0  0  0  0  0  0  0  0  0  0
    4.6504   -1.5531    2.2857 H   0  0  0  0  0  0  0  0  0  0  0  0
   -5.0096    0.8186   -1.1994 H   0  0  0  0  0  0  0  0  0  0  0  0
   -4.1706    1.3783   -2.6554 H   0  0  0  0  0  0  0  0  0  0  0  0
   -4.5165   -0.3453   -2.4400 H   0  0  0  0  0  0  0  0  0  0  0  0
  1  2  1  0
  2  3  3  0
  3  4  1  0
  4  5  3  0
  5  6  1  0
  6  7  3  0
  7  8  1  0
  1  9  1  0
  1 10  1  0
  1 11  1  0
  8 12  1  0
  8 13  1  0
  8 14  1  0
M  END
>  <anchor_atom_maps>  (9) 
1,2

>  <distance_A>  (9) 
9.604953985870637

>  <Rg_A>  (9) 
3.2967463711785894

>  <energy_kcal_mol>  (9) 
-0.12237372057410105

>  <ensemble>  (9) 
ETKDGv3 unweighted sampling; not a thermodynamic population

$$$$
Rigid alkynyl synthetic attachment-point proxy 9
     RDKit          3D

 14 13  0  0  0  0  0  0  0  0999 V2000
    4.7641    0.4429   -0.2979 C   0  0  0  0  0  0  0  0  0  1  0  0
    3.3137    0.2823   -0.2072 C   0  0  0  0  0  0  0  0  0  0  0  0
    2.1228    0.1504   -0.1327 C   0  0  0  0  0  0  0  0  0  0  0  0
    0.5952   -0.0187   -0.0372 C   0  0  0  0  0  0  0  0  0  0  0  0
   -0.5952   -0.1505    0.0372 C   0  0  0  0  0  0  0  0  0  0  0  0
   -2.1228   -0.3196    0.1327 C   0  0  0  0  0  0  0  0  0  0  0  0
   -3.3137   -0.4515    0.2072 C   0  0  0  0  0  0  0  0  0  0  0  0
   -4.7641   -0.6121    0.2979 C   0  0  0  0  0  0  0  0  0  2  0  0
    5.1461    0.0115   -1.2280 H   0  0  0  0  0  0  0  0  0  0  0  0
    5.0407    1.5013   -0.2759 H   0  0  0  0  0  0  0  0  0  0  0  0
    5.2640   -0.0559    0.5379 H   0  0  0  0  0  0  0  0  0  0  0  0
   -5.1499   -0.1545    1.2138 H   0  0  0  0  0  0  0  0  0  0  0  0
   -5.2622   -0.1388   -0.5537 H   0  0  0  0  0  0  0  0  0  0  0  0
   -5.0388   -1.6712    0.3059 H   0  0  0  0  0  0  0  0  0  0  0  0
  1  2  1  0
  2  3  3  0
  3  4  1  0
  4  5  3  0
  5  6  1  0
  6  7  3  0
  7  8  1  0
  1  9  1  0
  1 10  1  0
  1 11  1  0
  8 12  1  0
  8 13  1  0
  8 14  1  0
M  END
>  <anchor_atom_maps>  (10) 
1,2

>  <distance_A>  (10) 
9.604953905771442

>  <Rg_A>  (10) 
3.296746374384293

>  <energy_kcal_mol>  (10) 
-0.12237371684744303

>  <ensemble>  (10) 
ETKDGv3 unweighted sampling; not a thermodynamic population

$$$$
Rigid alkynyl synthetic attachment-point proxy 10
     RDKit          3D

 14 13  0  0  0  0  0  0  0  0999 V2000
    2.4050   -3.6979   -1.6742 C   0  0  0  0  0  0  0  0  0  1  0  0
    1.6728   -2.5395   -1.1645 C   0  0  0  0  0  0  0  0  0  0  0  0
    1.0717   -1.5884   -0.7460 C   0  0  0  0  0  0  0  0  0  0  0  0
    0.3005   -0.3684   -0.2092 C   0  0  0  0  0  0  0  0  0  0  0  0
   -0.3005    0.5823    0.2092 C   0  0  0  0  0  0  0  0  0  0  0  0
   -1.0717    1.8023    0.7460 C   0  0  0  0  0  0  0  0  0  0  0  0
   -1.6728    2.7534    1.1645 C   0  0  0  0  0  0  0  0  0  0  0  0
   -2.4051    3.9118    1.6742 C   0  0  0  0  0  0  0  0  0  2  0  0
    2.4168   -4.5062   -0.9369 H   0  0  0  0  0  0  0  0  0  0  0  0
    1.9417   -4.0797   -2.5889 H   0  0  0  0  0  0  0  0  0  0  0  0
    3.4415   -3.4330   -1.9039 H   0  0  0  0  0  0  0  0  0  0  0  0
   -3.0234    4.3576    0.8893 H   0  0  0  0  0  0  0  0  0  0  0  0
   -3.0615    3.6244    2.5010 H   0  0  0  0  0  0  0  0  0  0  0  0
   -1.7152    4.6785    2.0393 H   0  0  0  0  0  0  0  0  0  0  0  0
  1  2  1  0
  2  3  3  0
  3  4  1  0
  4  5  3  0
  5  6  1  0
  6  7  3  0
  7  8  1  0
  1  9  1  0
  1 10  1  0
  1 11  1  0
  8 12  1  0
  8 13  1  0
  8 14  1  0
M  END
>  <anchor_atom_maps>  (11) 
1,2

>  <distance_A>  (11) 
9.60495454830903

>  <Rg_A>  (11) 
3.2967465206317383

>  <energy_kcal_mol>  (11) 
-0.12237371865291757

>  <ensemble>  (11) 
ETKDGv3 unweighted sampling; not a thermodynamic population

$$$$
Rigid alkynyl synthetic attachment-point proxy 11
     RDKit          3D

 14 13  0  0  0  0  0  0  0  0999 V2000
    3.8184   -0.0085   -2.8999 C   0  0  0  0  0  0  0  0  0  1  0  0
    2.6559   -0.0059   -2.0131 C   0  0  0  0  0  0  0  0  0  0  0  0
    1.7014   -0.0038   -1.2850 C   0  0  0  0  0  0  0  0  0  0  0  0
    0.4771   -0.0011   -0.3511 C   0  0  0  0  0  0  0  0  0  0  0  0
   -0.4771    0.0010    0.3767 C   0  0  0  0  0  0  0  0  0  0  0  0
   -1.7014    0.0038    1.3106 C   0  0  0  0  0  0  0  0  0  0  0  0
   -2.6559    0.0059    2.0386 C   0  0  0  0  0  0  0  0  0  0  0  0
   -3.8184    0.0085    2.9254 C   0  0  0  0  0  0  0  0  0  2  0  0
    4.0178   -1.0159   -3.2775 H   0  0  0  0  0  0  0  0  0  0  0  0
    3.6545    0.6495   -3.7586 H   0  0  0  0  0  0  0  0  0  0  0  0
    4.7116    0.3389   -2.3718 H   0  0  0  0  0  0  0  0  0  0  0  0
   -4.2784   -0.9834    2.9672 H   0  0  0  0  0  0  0  0  0  0  0  0
   -4.5738    0.7183    2.5749 H   0  0  0  0  0  0  0  0  0  0  0  0
   -3.5317    0.2927    3.9423 H   0  0  0  0  0  0  0  0  0  0  0  0
  1  2  1  0
  2  3  3  0
  3  4  1  0
  4  5  3  0
  5  6  1  0
  6  7  3  0
  7  8  1  0
  1  9  1  0
  1 10  1  0
  1 11  1  0
  8 12  1  0
  8 13  1  0
  8 14  1  0
M  END
>  <anchor_atom_maps>  (12) 
1,2

>  <distance_A>  (12) 
9.60495347487369

>  <Rg_A>  (12) 
3.2967462197510056

>  <energy_kcal_mol>  (12) 
-0.12237371319523294

>  <ensemble>  (12) 
ETKDGv3 unweighted sampling; not a thermodynamic population

$$$$
Rigid alkynyl synthetic attachment-point proxy 12
     RDKit          3D

 14 13  0  0  0  0  0  0  0  0999 V2000
    1.9397   -3.1325   -2.9654 C   0  0  0  0  0  0  0  0  0  1  0  0
    1.3491   -2.1456   -2.0626 C   0  0  0  0  0  0  0  0  0  0  0  0
    0.8643   -1.3353   -1.3213 C   0  0  0  0  0  0  0  0  0  0  0  0
    0.2423   -0.2959   -0.3705 C   0  0  0  0  0  0  0  0  0  0  0  0
   -0.2424    0.5141    0.3705 C   0  0  0  0  0  0  0  0  0  0  0  0
   -0.8643    1.5535    1.3213 C   0  0  0  0  0  0  0  0  0  0  0  0
   -1.3492    2.3637    2.0626 C   0  0  0  0  0  0  0  0  0  0  0  0
   -1.9397    3.3506    2.9654 C   0  0  0  0  0  0  0  0  0  2  0  0
    1.3960   -4.0807   -2.9150 H   0  0  0  0  0  0  0  0  0  0  0  0
    2.9839   -3.3257   -2.7016 H   0  0  0  0  0  0  0  0  0  0  0  0
    1.9110   -2.7794   -4.0006 H   0  0  0  0  0  0  0  0  0  0  0  0
   -2.8924    3.7175    2.5717 H   0  0  0  0  0  0  0  0  0  0  0  0
   -1.2729    4.2085    3.0942 H   0  0  0  0  0  0  0  0  0  0  0  0
   -2.1254    2.9142    3.9514 H   0  0  0  0  0  0  0  0  0  0  0  0
  1  2  1  0
  2  3  3  0
  3  4  1  0
  4  5  3  0
  5  6  1  0
  6  7  3  0
  7  8  1  0
  1  9  1  0
  1 10  1  0
  1 11  1  0
  8 12  1  0
  8 13  1  0
  8 14  1  0
M  END
>  <anchor_atom_maps>  (13) 
1,2

>  <distance_A>  (13) 
9.604953692007719

>  <Rg_A>  (13) 
3.296746284643655

>  <energy_kcal_mol>  (13) 
-0.12237371245319499

>  <ensemble>  (13) 
ETKDGv3 unweighted sampling; not a thermodynamic population

$$$$
Rigid alkynyl synthetic attachment-point proxy 13
     RDKit          3D

 14 13  0  0  0  0  0  0  0  0999 V2000
    4.7839   -0.2016    0.1956 C   0  0  0  0  0  0  0  0  0  1  0  0
    3.3274   -0.1402    0.0826 C   0  0  0  0  0  0  0  0  0  0  0  0
    2.1316   -0.0898   -0.0102 C   0  0  0  0  0  0  0  0  0  0  0  0
    0.5977   -0.0252   -0.1293 C   0  0  0  0  0  0  0  0  0  0  0  0
   -0.5977    0.0252   -0.2220 C   0  0  0  0  0  0  0  0  0  0  0  0
   -2.1316    0.0898   -0.3410 C   0  0  0  0  0  0  0  0  0  0  0  0
   -3.3274    0.1402   -0.4338 C   0  0  0  0  0  0  0  0  0  0  0  0
   -4.7839    0.2016   -0.5468 C   0  0  0  0  0  0  0  0  0  2  0  0
    5.1765    0.7060    0.6640 H   0  0  0  0  0  0  0  0  0  0  0  0
    5.2470   -0.3021   -0.7906 H   0  0  0  0  0  0  0  0  0  0  0  0
    5.0914   -1.0576    0.8038 H   0  0  0  0  0  0  0  0  0  0  0  0
   -5.1596   -0.6077   -1.1800 H   0  0  0  0  0  0  0  0  0  0  0  0
   -5.1005    1.1519   -0.9871 H   0  0  0  0  0  0  0  0  0  0  0  0
   -5.2548    0.1096    0.4366 H   0  0  0  0  0  0  0  0  0  0  0  0
  1  2  1  0
  2  3  3  0
  3  4  1  0
  4  5  3  0
  5  6  1  0
  6  7  3  0
  7  8  1  0
  1  9  1  0
  1 10  1  0
  1 11  1  0
  8 12  1  0
  8 13  1  0
  8 14  1  0
M  END
>  <anchor_atom_maps>  (14) 
1,2

>  <distance_A>  (14) 
9.604953573138141

>  <Rg_A>  (14) 
3.2967462937352563

>  <energy_kcal_mol>  (14) 
-0.12237370777247138

>  <ensemble>  (14) 
ETKDGv3 unweighted sampling; not a thermodynamic population

$$$$
Rigid alkynyl synthetic attachment-point proxy 14
     RDKit          3D

 14 13  0  0  0  0  0  0  0  0999 V2000
    4.7082    0.0130    0.9367 C   0  0  0  0  0  0  0  0  0  1  0  0
    3.2748   -0.0296    0.6515 C   0  0  0  0  0  0  0  0  0  0  0  0
    2.0979   -0.0645    0.4174 C   0  0  0  0  0  0  0  0  0  0  0  0
    0.5882   -0.1094    0.1170 C   0  0  0  0  0  0  0  0  0  0  0  0
   -0.5882   -0.1444   -0.1170 C   0  0  0  0  0  0  0  0  0  0  0  0
   -2.0979   -0.1892   -0.4174 C   0  0  0  0  0  0  0  0  0  0  0  0
   -3.2748   -0.2242   -0.6515 C   0  0  0  0  0  0  0  0  0  0  0  0
   -4.7082   -0.2668   -0.9367 C   0  0  0  0  0  0  0  0  0  2  0  0
    5.2154    0.7233    0.2768 H   0  0  0  0  0  0  0  0  0  0  0  0
    4.8904    0.3208    1.9707 H   0  0  0  0  0  0  0  0  0  0  0  0
    5.1636   -0.9710    0.7903 H   0  0  0  0  0  0  0  0  0  0  0  0
   -5.1050   -1.2755   -0.7872 H   0  0  0  0  0  0  0  0  0  0  0  0
   -4.9081    0.0265   -1.9717 H   0  0  0  0  0  0  0  0  0  0  0  0
   -5.2563    0.4144   -0.2790 H   0  0  0  0  0  0  0  0  0  0  0  0
  1  2  1  0
  2  3  3  0
  3  4  1  0
  4  5  3  0
  5  6  1  0
  6  7  3  0
  7  8  1  0
  1  9  1  0
  1 10  1  0
  1 11  1  0
  8 12  1  0
  8 13  1  0
  8 14  1  0
M  END
>  <anchor_atom_maps>  (15) 
1,2

>  <distance_A>  (15) 
9.604953576253143

>  <Rg_A>  (15) 
3.2967462805107153

>  <energy_kcal_mol>  (15) 
-0.12237371855250267

>  <ensemble>  (15) 
ETKDGv3 unweighted sampling; not a thermodynamic population

$$$$
Rigid alkynyl synthetic attachment-point proxy 15
     RDKit          3D

 14 13  0  0  0  0  0  0  0  0999 V2000
    4.7575   -0.4655   -0.3969 C   0  0  0  0  0  0  0  0  0  1  0  0
    3.3091   -0.3238   -0.2564 C   0  0  0  0  0  0  0  0  0  0  0  0
    2.1199   -0.2074   -0.1410 C   0  0  0  0  0  0  0  0  0  0  0  0
    0.5944   -0.0582    0.0070 C   0  0  0  0  0  0  0  0  0  0  0  0
   -0.5944    0.0582    0.1223 C   0  0  0  0  0  0  0  0  0  0  0  0
   -2.1199    0.2074    0.2703 C   0  0  0  0  0  0  0  0  0  0  0  0
   -3.3091    0.3238    0.3856 C   0  0  0  0  0  0  0  0  0  0  0  0
   -4.7575    0.4655    0.5261 C   0  0  0  0  0  0  0  0  0  2  0  0
    5.2793    0.3581    0.0998 H   0  0  0  0  0  0  0  0  0  0  0  0
    5.0483   -0.4643   -1.4517 H   0  0  0  0  0  0  0  0  0  0  0  0
    5.1020   -1.4034    0.0490 H   0  0  0  0  0  0  0  0  0  0  0  0
   -5.2739   -0.4230    0.1504 H   0  0  0  0  0  0  0  0  0  0  0  0
   -5.0354    0.6010    1.5757 H   0  0  0  0  0  0  0  0  0  0  0  0
   -5.1202    1.3317   -0.0354 H   0  0  0  0  0  0  0  0  0  0  0  0
  1  2  1  0
  2  3  3  0
  3  4  1  0
  4  5  3  0
  5  6  1  0
  6  7  3  0
  7  8  1  0
  1  9  1  0
  1 10  1  0
  1 11  1  0
  8 12  1  0
  8 13  1  0
  8 14  1  0
M  END
>  <anchor_atom_maps>  (16) 
1,2

>  <distance_A>  (16) 
9.604953979535539

>  <Rg_A>  (16) 
3.296746386418533

>  <energy_kcal_mol>  (16) 
-0.12237371692843312

>  <ensemble>  (16) 
ETKDGv3 unweighted sampling; not a thermodynamic population

$$$$
Rigid alkynyl synthetic attachment-point proxy 16
     RDKit          3D

 14 13  0  0  0  0  0  0  0  0999 V2000
    4.4899   -0.9882    1.2162 C   0  0  0  0  0  0  0  0  0  1  0  0
    3.1229   -0.6873    0.7934 C   0  0  0  0  0  0  0  0  0  0  0  0
    2.0006   -0.4403    0.4463 C   0  0  0  0  0  0  0  0  0  0  0  0
    0.5610   -0.1235    0.0011 C   0  0  0  0  0  0  0  0  0  0  0  0
   -0.5610    0.1235   -0.3459 C   0  0  0  0  0  0  0  0  0  0  0  0
   -2.0006    0.4403   -0.7911 C   0  0  0  0  0  0  0  0  0  0  0  0
   -3.1229    0.6873   -1.1382 C   0  0  0  0  0  0  0  0  0  0  0  0
   -4.4899    0.9882   -1.5610 C   0  0  0  0  0  0  0  0  0  2  0  0
    4.6147   -0.8069    2.2880 H   0  0  0  0  0  0  0  0  0  0  0  0
    4.7370   -2.0355    1.0182 H   0  0  0  0  0  0  0  0  0  0  0  0
    5.2098   -0.3624    0.6801 H   0  0  0  0  0  0  0  0  0  0  0  0
   -4.6963    0.5583   -2.5458 H   0  0  0  0  0  0  0  0  0  0  0  0
   -5.2157    0.5776   -0.8526 H   0  0  0  0  0  0  0  0  0  0  0  0
   -4.6495    2.0689   -1.6223 H   0  0  0  0  0  0  0  0  0  0  0  0
  1  2  1  0
  2  3  3  0
  3  4  1  0
  4  5  3  0
  5  6  1  0
  6  7  3  0
  7  8  1  0
  1  9  1  0
  1 10  1  0
  1 11  1  0
  8 12  1  0
  8 13  1  0
  8 14  1  0
M  END
>  <anchor_atom_maps>  (17) 
1,2

>  <distance_A>  (17) 
9.604954157054818

>  <Rg_A>  (17) 
3.2967464470335037

>  <energy_kcal_mol>  (17) 
-0.12237371741388599

>  <ensemble>  (17) 
ETKDGv3 unweighted sampling; not a thermodynamic population

$$$$
Rigid alkynyl synthetic attachment-point proxy 17
     RDKit          3D

 14 13  0  0  0  0  0  0  0  0999 V2000
   -4.7805    0.3502    0.0090 C   0  0  0  0  0  0  0  0  0  1  0  0
   -3.3251    0.2435    0.0991 C   0  0  0  0  0  0  0  0  0  0  0  0
   -2.1301    0.1560    0.1730 C   0  0  0  0  0  0  0  0  0  0  0  0
   -0.5973    0.0437    0.2679 C   0  0  0  0  0  0  0  0  0  0  0  0
    0.5973   -0.0438    0.3418 C   0  0  0  0  0  0  0  0  0  0  0  0
    2.1301   -0.1561    0.4367 C   0  0  0  0  0  0  0  0  0  0  0  0
    3.3251   -0.2436    0.5107 C   0  0  0  0  0  0  0  0  0  0  0  0
    4.7805   -0.3501    0.6007 C   0  0  0  0  0  0  0  0  0  2  0  0
   -5.1320    1.2787    0.4688 H   0  0  0  0  0  0  0  0  0  0  0  0
   -5.2646   -0.4866    0.5214 H   0  0  0  0  0  0  0  0  0  0  0  0
   -5.1075    0.3436   -1.0352 H   0  0  0  0  0  0  0  0  0  0  0  0
    5.1064   -0.3576    1.6452 H   0  0  0  0  0  0  0  0  0  0  0  0
    5.2644    0.4941    0.1004 H   0  0  0  0  0  0  0  0  0  0  0  0
    5.1333   -1.2720    0.1286 H   0  0  0  0  0  0  0  0  0  0  0  0
  1  2  1  0
  2  3  3  0
  3  4  1  0
  4  5  3  0
  5  6  1  0
  6  7  3  0
  7  8  1  0
  1  9  1  0
  1 10  1  0
  1 11  1  0
  8 12  1  0
  8 13  1  0
  8 14  1  0
M  END
>  <anchor_atom_maps>  (18) 
1,2

>  <distance_A>  (18) 
9.60495397215502

>  <Rg_A>  (18) 
3.296746352253966

>  <energy_kcal_mol>  (18) 
-0.12237370048546825

>  <ensemble>  (18) 
ETKDGv3 unweighted sampling; not a thermodynamic population

$$$$
Rigid alkynyl synthetic attachment-point proxy 18
     RDKit          3D

 14 13  0  0  0  0  0  0  0  0999 V2000
    4.7560   -0.4780    0.5324 C   0  0  0  0  0  0  0  0  0  1  0  0
    3.3080   -0.3325    0.3910 C   0  0  0  0  0  0  0  0  0  0  0  0
    2.1192   -0.2130    0.2749 C   0  0  0  0  0  0  0  0  0  0  0  0
    0.5942   -0.0597    0.1259 C   0  0  0  0  0  0  0  0  0  0  0  0
   -0.5942    0.0597    0.0098 C   0  0  0  0  0  0  0  0  0  0  0  0
   -2.1192    0.2130   -0.1392 C   0  0  0  0  0  0  0  0  0  0  0  0
   -3.3080    0.3325   -0.2553 C   0  0  0  0  0  0  0  0  0  0  0  0
   -4.7560    0.4780   -0.3968 C   0  0  0  0  0  0  0  0  0  2  0  0
    5.0143   -0.8518    1.5278 H   0  0  0  0  0  0  0  0  0  0  0  0
    5.1506   -1.1813   -0.2071 H   0  0  0  0  0  0  0  0  0  0  0  0
    5.2596    0.4828    0.3895 H   0  0  0  0  0  0  0  0  0  0  0  0
   -5.0856    1.4578   -0.0383 H   0  0  0  0  0  0  0  0  0  0  0  0
   -5.0565    0.3812   -1.4444 H   0  0  0  0  0  0  0  0  0  0  0  0
   -5.2824   -0.2888    0.1795 H   0  0  0  0  0  0  0  0  0  0  0  0
  1  2  1  0
  2  3  3  0
  3  4  1  0
  4  5  3  0
  5  6  1  0
  6  7  3  0
  7  8  1  0
  1  9  1  0
  1 10  1  0
  1 11  1  0
  8 12  1  0
  8 13  1  0
  8 14  1  0
M  END
>  <anchor_atom_maps>  (19) 
1,2

>  <distance_A>  (19) 
9.604953966536161

>  <Rg_A>  (19) 
3.296746402365183

>  <energy_kcal_mol>  (19) 
-0.1223737148066116

>  <ensemble>  (19) 
ETKDGv3 unweighted sampling; not a thermodynamic population

$$$$
Rigid alkynyl synthetic attachment-point proxy 19
     RDKit          3D

 14 13  0  0  0  0  0  0  0  0999 V2000
    4.7784   -0.1575   -0.4799 C   0  0  0  0  0  0  0  0  0  1  0  0
    3.3236   -0.1611   -0.3338 C   0  0  0  0  0  0  0  0  0  0  0  0
    2.1292   -0.1640   -0.2138 C   0  0  0  0  0  0  0  0  0  0  0  0
    0.5970   -0.1677   -0.0599 C   0  0  0  0  0  0  0  0  0  0  0  0
   -0.5970   -0.1707    0.0600 C   0  0  0  0  0  0  0  0  0  0  0  0
   -2.1292   -0.1744    0.2138 C   0  0  0  0  0  0  0  0  0  0  0  0
   -3.3236   -0.1773    0.3338 C   0  0  0  0  0  0  0  0  0  0  0  0
   -4.7784   -0.1809    0.4799 C   0  0  0  0  0  0  0  0  0  2  0  0
    5.1315   -1.1113   -0.8835 H   0  0  0  0  0  0  0  0  0  0  0  0
    5.0995    0.6380   -1.1590 H   0  0  0  0  0  0  0  0  0  0  0  0
    5.2663    0.0036    0.4862 H   0  0  0  0  0  0  0  0  0  0  0  0
   -5.1984    0.7947    0.2170 H   0  0  0  0  0  0  0  0  0  0  0  0
   -5.0656   -0.4072    1.5111 H   0  0  0  0  0  0  0  0  0  0  0  0
   -5.2333   -0.9329   -0.1718 H   0  0  0  0  0  0  0  0  0  0  0  0
  1  2  1  0
  2  3  3  0
  3  4  1  0
  4  5  3  0
  5  6  1  0
  6  7  3  0
  7  8  1  0
  1  9  1  0
  1 10  1  0
  1 11  1  0
  8 12  1  0
  8 13  1  0
  8 14  1  0
M  END
>  <anchor_atom_maps>  (20) 
1,2

>  <distance_A>  (20) 
9.604954279829792

>  <Rg_A>  (20) 
3.2967463725535597

>  <energy_kcal_mol>  (20) 
-0.12237371762550302

>  <ensemble>  (20) 
ETKDGv3 unweighted sampling; not a thermodynamic population

$$$$
Rigid alkynyl synthetic attachment-point proxy 20
     RDKit          3D

 14 13  0  0  0  0  0  0  0  0999 V2000
   -4.7954    0.2549   -0.1730 C   0  0  0  0  0  0  0  0  0  1  0  0
   -3.3354    0.1773   -0.1570 C   0  0  0  0  0  0  0  0  0  0  0  0
   -2.1368    0.1136   -0.1439 C   0  0  0  0  0  0  0  0  0  0  0  0
   -0.5991    0.0319   -0.1271 C   0  0  0  0  0  0  0  0  0  0  0  0
    0.5991   -0.0319   -0.1140 C   0  0  0  0  0  0  0  0  0  0  0  0
    2.1368   -0.1136   -0.0972 C   0  0  0  0  0  0  0  0  0  0  0  0
    3.3354   -0.1773   -0.0840 C   0  0  0  0  0  0  0  0  0  0  0  0
    4.7954   -0.2549   -0.0681 C   0  0  0  0  0  0  0  0  0  2  0  0
   -5.2333   -0.7064   -0.4581 H   0  0  0  0  0  0  0  0  0  0  0  0
   -5.1818    0.5242    0.8147 H   0  0  0  0  0  0  0  0  0  0  0  0
   -5.1374    1.0090   -0.8882 H   0  0  0  0  0  0  0  0  0  0  0  0
    5.2276    0.6365    0.3964 H   0  0  0  0  0  0  0  0  0  0  0  0
    5.1326   -1.1292    0.4968 H   0  0  0  0  0  0  0  0  0  0  0  0
    5.1922   -0.3341   -1.0847 H   0  0  0  0  0  0  0  0  0  0  0  0
  1  2  1  0
  2  3  3  0
  3  4  1  0
  4  5  3  0
  5  6  1  0
  6  7  3  0
  7  8  1  0
  1  9  1  0
  1 10  1  0
  1 11  1  0
  8 12  1  0
  8 13  1  0
  8 14  1  0
M  END
>  <anchor_atom_maps>  (21) 
1,2

>  <distance_A>  (21) 
9.604954371114033

>  <Rg_A>  (21) 
3.296746490950675

>  <energy_kcal_mol>  (21) 
-0.1223737170992331

>  <ensemble>  (21) 
ETKDGv3 unweighted sampling; not a thermodynamic population

$$$$
Rigid alkynyl synthetic attachment-point proxy 21
     RDKit          3D

 14 13  0  0  0  0  0  0  0  0999 V2000
   -4.6169   -0.1008    1.5323 C   0  0  0  0  0  0  0  0  0  1  0  0
   -3.2112   -0.0701    1.1309 C   0  0  0  0  0  0  0  0  0  0  0  0
   -2.0572   -0.0449    0.8013 C   0  0  0  0  0  0  0  0  0  0  0  0
   -0.5768   -0.0126    0.3786 C   0  0  0  0  0  0  0  0  0  0  0  0
    0.5768    0.0126    0.0491 C   0  0  0  0  0  0  0  0  0  0  0  0
    2.0572    0.0449   -0.3736 C   0  0  0  0  0  0  0  0  0  0  0  0
    3.2112    0.0701   -0.7032 C   0  0  0  0  0  0  0  0  0  0  0  0
    4.6169    0.1008   -1.1046 C   0  0  0  0  0  0  0  0  0  2  0  0
   -5.2545   -0.3985    0.6945 H   0  0  0  0  0  0  0  0  0  0  0  0
   -4.7733   -0.8134    2.3478 H   0  0  0  0  0  0  0  0  0  0  0  0
   -4.9454    0.8849    1.8753 H   0  0  0  0  0  0  0  0  0  0  0  0
    5.2690    0.1985   -0.2314 H   0  0  0  0  0  0  0  0  0  0  0  0
    4.8130    0.9462   -1.7709 H   0  0  0  0  0  0  0  0  0  0  0  0
    4.8912   -0.8177   -1.6320 H   0  0  0  0  0  0  0  0  0  0  0  0
  1  2  1  0
  2  3  3  0
  3  4  1  0
  4  5  3  0
  5  6  1  0
  6  7  3  0
  7  8  1  0
  1  9  1  0
  1 10  1  0
  1 11  1  0
  8 12  1  0
  8 13  1  0
  8 14  1  0
M  END
>  <anchor_atom_maps>  (22) 
1,2

>  <distance_A>  (22) 
9.604953908157645

>  <Rg_A>  (22) 
3.296746343932

>  <energy_kcal_mol>  (22) 
-0.12237371628860058

>  <ensemble>  (22) 
ETKDGv3 unweighted sampling; not a thermodynamic population

$$$$
Rigid alkynyl synthetic attachment-point proxy 22
     RDKit          3D

 14 13  0  0  0  0  0  0  0  0999 V2000
    4.7964   -0.0504    0.2085 C   0  0  0  0  0  0  0  0  0  1  0  0
    3.3362   -0.0351    0.1369 C   0  0  0  0  0  0  0  0  0  0  0  0
    2.1372   -0.0225    0.0780 C   0  0  0  0  0  0  0  0  0  0  0  0
    0.5993   -0.0063    0.0026 C   0  0  0  0  0  0  0  0  0  0  0  0
   -0.5993    0.0063   -0.0562 C   0  0  0  0  0  0  0  0  0  0  0  0
   -2.1372    0.0225   -0.1317 C   0  0  0  0  0  0  0  0  0  0  0  0
   -3.3362    0.0351   -0.1905 C   0  0  0  0  0  0  0  0  0  0  0  0
   -4.7964    0.0504   -0.2622 C   0  0  0  0  0  0  0  0  0  2  0  0
    5.1995    0.9654    0.1557 H   0  0  0  0  0  0  0  0  0  0  0  0
    5.1355   -0.5017    1.1458 H   0  0  0  0  0  0  0  0  0  0  0  0
    5.2207   -0.6273   -0.6188 H   0  0  0  0  0  0  0  0  0  0  0  0
   -5.2347   -0.4149    0.6258 H   0  0  0  0  0  0  0  0  0  0  0  0
   -5.1722    1.0759   -0.3283 H   0  0  0  0  0  0  0  0  0  0  0  0
   -5.1488   -0.4974   -1.1413 H   0  0  0  0  0  0  0  0  0  0  0  0
  1  2  1  0
  2  3  3  0
  3  4  1  0
  4  5  3  0
  5  6  1  0
  6  7  3  0
  7  8  1  0
  1  9  1  0
  1 10  1  0
  1 11  1  0
  8 12  1  0
  8 13  1  0
  8 14  1  0
M  END
>  <anchor_atom_maps>  (23) 
1,2

>  <distance_A>  (23) 
9.60495399081708

>  <Rg_A>  (23) 
3.2967463879491765

>  <energy_kcal_mol>  (23) 
-0.12237372050655156

>  <ensemble>  (23) 
ETKDGv3 unweighted sampling; not a thermodynamic population

$$$$
Rigid alkynyl synthetic attachment-point proxy 23
     RDKit          3D

 14 13  0  0  0  0  0  0  0  0999 V2000
    3.8389   -0.4750   -2.8400 C   0  0  0  0  0  0  0  0  0  1  0  0
    2.6701   -0.3194   -1.9753 C   0  0  0  0  0  0  0  0  0  0  0  0
    1.7106   -0.1917   -1.2654 C   0  0  0  0  0  0  0  0  0  0  0  0
    0.4796   -0.0278   -0.3548 C   0  0  0  0  0  0  0  0  0  0  0  0
   -0.4796    0.0999    0.3548 C   0  0  0  0  0  0  0  0  0  0  0  0
   -1.7106    0.2638    1.2654 C   0  0  0  0  0  0  0  0  0  0  0  0
   -2.6701    0.3916    1.9753 C   0  0  0  0  0  0  0  0  0  0  0  0
   -3.8389    0.5472    2.8400 C   0  0  0  0  0  0  0  0  0  2  0  0
    4.4436   -1.3314   -2.5268 H   0  0  0  0  0  0  0  0  0  0  0  0
    3.5359   -0.6355   -3.8790 H   0  0  0  0  0  0  0  0  0  0  0  0
    4.4708    0.4175   -2.8047 H   0  0  0  0  0  0  0  0  0  0  0  0
   -3.9044    1.5690    3.2259 H   0  0  0  0  0  0  0  0  0  0  0  0
   -3.7852   -0.1352    3.6936 H   0  0  0  0  0  0  0  0  0  0  0  0
   -4.7606    0.3321    2.2910 H   0  0  0  0  0  0  0  0  0  0  0  0
  1  2  1  0
  2  3  3  0
  3  4  1  0
  4  5  3  0
  5  6  1  0
  6  7  3  0
  7  8  1  0
  1  9  1  0
  1 10  1  0
  1 11  1  0
  8 12  1  0
  8 13  1  0
  8 14  1  0
M  END
>  <anchor_atom_maps>  (24) 
1,2

>  <distance_A>  (24) 
9.604953753826377

>  <Rg_A>  (24) 
3.2967463319649286

>  <energy_kcal_mol>  (24) 
-0.12237372004959425

>  <ensemble>  (24) 
ETKDGv3 unweighted sampling; not a thermodynamic population

$$$$
Rigid alkynyl synthetic attachment-point proxy 24
     RDKit          3D

 14 13  0  0  0  0  0  0  0  0999 V2000
    4.5683   -1.2580    0.6481 C   0  0  0  0  0  0  0  0  0  1  0  0
    3.1774   -0.8524    0.4508 C   0  0  0  0  0  0  0  0  0  0  0  0
    2.0355   -0.5194    0.2888 C   0  0  0  0  0  0  0  0  0  0  0  0
    0.5708   -0.0922    0.0810 C   0  0  0  0  0  0  0  0  0  0  0  0
   -0.5708    0.2407   -0.0810 C   0  0  0  0  0  0  0  0  0  0  0  0
   -2.0355    0.6678   -0.2888 C   0  0  0  0  0  0  0  0  0  0  0  0
   -3.1774    1.0008   -0.4508 C   0  0  0  0  0  0  0  0  0  0  0  0
   -4.5683    1.4064   -0.6481 C   0  0  0  0  0  0  0  0  0  2  0  0
    4.6969   -1.7486    1.6176 H   0  0  0  0  0  0  0  0  0  0  0  0
    5.2350   -0.3910    0.6155 H   0  0  0  0  0  0  0  0  0  0  0  0
    4.8838   -1.9582   -0.1311 H   0  0  0  0  0  0  0  0  0  0  0  0
   -4.8565    1.3099   -1.6992 H   0  0  0  0  0  0  0  0  0  0  0  0
   -5.2434    0.7844   -0.0527 H   0  0  0  0  0  0  0  0  0  0  0  0
   -4.7158    2.4488   -0.3501 H   0  0  0  0  0  0  0  0  0  0  0  0
  1  2  1  0
  2  3  3  0
  3  4  1  0
  4  5  3  0
  5  6  1  0
  6  7  3  0
  7  8  1  0
  1  9  1  0
  1 10  1  0
  1 11  1  0
  8 12  1  0
  8 13  1  0
  8 14  1  0
M  END
>  <anchor_atom_maps>  (25) 
1,2

>  <distance_A>  (25) 
9.604954058102983

>  <Rg_A>  (25) 
3.296746379370082

>  <energy_kcal_mol>  (25) 
-0.1223737169629755

>  <ensemble>  (25) 
ETKDGv3 unweighted sampling; not a thermodynamic population

$$$$
Rigid alkynyl synthetic attachment-point proxy 25
     RDKit          3D

 14 13  0  0  0  0  0  0  0  0999 V2000
    4.6860   -0.9891    0.4798 C   0  0  0  0  0  0  0  0  0  1  0  0
    3.2593   -0.6880    0.3711 C   0  0  0  0  0  0  0  0  0  0  0  0
    2.0880   -0.4407    0.2819 C   0  0  0  0  0  0  0  0  0  0  0  0
    0.5855   -0.1236    0.1675 C   0  0  0  0  0  0  0  0  0  0  0  0
   -0.5855    0.1236    0.0783 C   0  0  0  0  0  0  0  0  0  0  0  0
   -2.0880    0.4407   -0.0361 C   0  0  0  0  0  0  0  0  0  0  0  0
   -3.2593    0.6880   -0.1253 C   0  0  0  0  0  0  0  0  0  0  0  0
   -4.6860    0.9891   -0.2340 C   0  0  0  0  0  0  0  0  0  2  0  0
    4.9611   -1.8149   -0.1832 H   0  0  0  0  0  0  0  0  0  0  0  0
    5.2895   -0.1185    0.2058 H   0  0  0  0  0  0  0  0  0  0  0  0
    4.9468   -1.2743    1.5034 H   0  0  0  0  0  0  0  0  0  0  0  0
   -4.8433    1.9631   -0.7070 H   0  0  0  0  0  0  0  0  0  0  0  0
   -5.1987    0.2327   -0.8358 H   0  0  0  0  0  0  0  0  0  0  0  0
   -5.1553    1.0120    0.7541 H   0  0  0  0  0  0  0  0  0  0  0  0
  1  2  1  0
  2  3  3  0
  3  4  1  0
  4  5  3  0
  5  6  1  0
  6  7  3  0
  7  8  1  0
  1  9  1  0
  1 10  1  0
  1 11  1  0
  8 12  1  0
  8 13  1  0
  8 14  1  0
M  END
>  <anchor_atom_maps>  (26) 
1,2

>  <distance_A>  (26) 
9.604954671533918

>  <Rg_A>  (26) 
3.296746588246017

>  <energy_kcal_mol>  (26) 
-0.12237371964389376

>  <ensemble>  (26) 
ETKDGv3 unweighted sampling; not a thermodynamic population

$$$$
Rigid alkynyl synthetic attachment-point proxy 26
     RDKit          3D

 14 13  0  0  0  0  0  0  0  0999 V2000
   -4.3965    1.5131    1.2374 C   0  0  0  0  0  0  0  0  0  1  0  0
   -3.0580    1.0612    0.8607 C   0  0  0  0  0  0  0  0  0  0  0  0
   -1.9590    0.6901    0.5514 C   0  0  0  0  0  0  0  0  0  0  0  0
   -0.5493    0.2142    0.1546 C   0  0  0  0  0  0  0  0  0  0  0  0
    0.5493   -0.1567   -0.1546 C   0  0  0  0  0  0  0  0  0  0  0  0
    1.9590   -0.6327   -0.5514 C   0  0  0  0  0  0  0  0  0  0  0  0
    3.0580   -1.0037   -0.8607 C   0  0  0  0  0  0  0  0  0  0  0  0
    4.3965   -1.4557   -1.2374 C   0  0  0  0  0  0  0  0  0  2  0  0
   -5.1641    0.8916    0.7666 H   0  0  0  0  0  0  0  0  0  0  0  0
   -4.5346    1.4597    2.3215 H   0  0  0  0  0  0  0  0  0  0  0  0
   -4.5599    2.5489    0.9251 H   0  0  0  0  0  0  0  0  0  0  0  0
    4.5688   -1.3120   -2.3083 H   0  0  0  0  0  0  0  0  0  0  0  0
    5.1636   -0.8974   -0.6924 H   0  0  0  0  0  0  0  0  0  0  0  0
    4.5262   -2.5186   -1.0124 H   0  0  0  0  0  0  0  0  0  0  0  0
  1  2  1  0
  2  3  3  0
  3  4  1  0
  4  5  3  0
  5  6  1  0
  6  7  3  0
  7  8  1  0
  1  9  1  0
  1 10  1  0
  1 11  1  0
  8 12  1  0
  8 13  1  0
  8 14  1  0
M  END
>  <anchor_atom_maps>  (27) 
1,2

>  <distance_A>  (27) 
9.604954036273103

>  <Rg_A>  (27) 
3.2967463966082904

>  <energy_kcal_mol>  (27) 
-0.1223737167337461

>  <ensemble>  (27) 
ETKDGv3 unweighted sampling; not a thermodynamic population

$$$$
Rigid alkynyl synthetic attachment-point proxy 27
     RDKit          3D

 14 13  0  0  0  0  0  0  0  0999 V2000
    4.5915    1.1487    0.4629 C   0  0  0  0  0  0  0  0  0  1  0  0
    3.1936    0.7990    0.2151 C   0  0  0  0  0  0  0  0  0  0  0  0
    2.0459    0.5118    0.0116 C   0  0  0  0  0  0  0  0  0  0  0  0
    0.5737    0.1435   -0.2495 C   0  0  0  0  0  0  0  0  0  0  0  0
   -0.5737   -0.1435   -0.4529 C   0  0  0  0  0  0  0  0  0  0  0  0
   -2.0459   -0.5118   -0.7139 C   0  0  0  0  0  0  0  0  0  0  0  0
   -3.1936   -0.7990   -0.9174 C   0  0  0  0  0  0  0  0  0  0  0  0
   -4.5915   -1.1487   -1.1653 C   0  0  0  0  0  0  0  0  0  2  0  0
    4.6739    2.1643    0.8617 H   0  0  0  0  0  0  0  0  0  0  0  0
    5.0420    0.4625    1.1863 H   0  0  0  0  0  0  0  0  0  0  0  0
    5.1750    1.0986   -0.4613 H   0  0  0  0  0  0  0  0  0  0  0  0
   -5.2572   -0.3406   -0.8473 H   0  0  0  0  0  0  0  0  0  0  0  0
   -4.8697   -2.0533   -0.6163 H   0  0  0  0  0  0  0  0  0  0  0  0
   -4.7641   -1.3314   -2.2302 H   0  0  0  0  0  0  0  0  0  0  0  0
  1  2  1  0
  2  3  3  0
  3  4  1  0
  4  5  3  0
  5  6  1  0
  6  7  3  0
  7  8  1  0
  1  9  1  0
  1 10  1  0
  1 11  1  0
  8 12  1  0
  8 13  1  0
  8 14  1  0
M  END
>  <anchor_atom_maps>  (28) 
1,2

>  <distance_A>  (28) 
9.604955266888298

>  <Rg_A>  (28) 
3.2967467118596683

>  <energy_kcal_mol>  (28) 
-0.12237371974343436

>  <ensemble>  (28) 
ETKDGv3 unweighted sampling; not a thermodynamic population

$$$$
Rigid alkynyl synthetic attachment-point proxy 28
     RDKit          3D

 14 13  0  0  0  0  0  0  0  0999 V2000
    4.6467    1.2630    0.4238 C   0  0  0  0  0  0  0  0  0  1  0  0
    3.2320    0.9168    0.2948 C   0  0  0  0  0  0  0  0  0  0  0  0
    2.0705    0.6327    0.1889 C   0  0  0  0  0  0  0  0  0  0  0  0
    0.5806    0.2681    0.0530 C   0  0  0  0  0  0  0  0  0  0  0  0
   -0.5806   -0.0160   -0.0530 C   0  0  0  0  0  0  0  0  0  0  0  0
   -2.0705   -0.3805   -0.1889 C   0  0  0  0  0  0  0  0  0  0  0  0
   -3.2320   -0.6647   -0.2948 C   0  0  0  0  0  0  0  0  0  0  0  0
   -4.6467   -1.0108   -0.4238 C   0  0  0  0  0  0  0  0  0  2  0  0
    5.2748    0.3710    0.3407 H   0  0  0  0  0  0  0  0  0  0  0  0
    4.9487    1.9649   -0.3593 H   0  0  0  0  0  0  0  0  0  0  0  0
    4.8464    1.7295    1.3932 H   0  0  0  0  0  0  0  0  0  0  0  0
   -5.2435   -0.4999    0.3378 H   0  0  0  0  0  0  0  0  0  0  0  0
   -5.0304   -0.7207   -1.4066 H   0  0  0  0  0  0  0  0  0  0  0  0
   -4.7962   -2.0883   -0.3057 H   0  0  0  0  0  0  0  0  0  0  0  0
  1  2  1  0
  2  3  3  0
  3  4  1  0
  4  5  3  0
  5  6  1  0
  6  7  3  0
  7  8  1  0
  1  9  1  0
  1 10  1  0
  1 11  1  0
  8 12  1  0
  8 13  1  0
  8 14  1  0
M  END
>  <anchor_atom_maps>  (29) 
1,2

>  <distance_A>  (29) 
9.60495394259574

>  <Rg_A>  (29) 
3.2967463826418917

>  <energy_kcal_mol>  (29) 
-0.12237371984776171

>  <ensemble>  (29) 
ETKDGv3 unweighted sampling; not a thermodynamic population

$$$$
Rigid alkynyl synthetic attachment-point proxy 29
     RDKit          3D

 14 13  0  0  0  0  0  0  0  0999 V2000
    4.7055    0.3716   -0.9398 C   0  0  0  0  0  0  0  0  0  1  0  0
    3.2729    0.3117   -0.6537 C   0  0  0  0  0  0  0  0  0  0  0  0
    2.0967    0.2625   -0.4188 C   0  0  0  0  0  0  0  0  0  0  0  0
    0.5879    0.1994   -0.1174 C   0  0  0  0  0  0  0  0  0  0  0  0
   -0.5879    0.1502    0.1174 C   0  0  0  0  0  0  0  0  0  0  0  0
   -2.0967    0.0871    0.4188 C   0  0  0  0  0  0  0  0  0  0  0  0
   -3.2729    0.0379    0.6537 C   0  0  0  0  0  0  0  0  0  0  0  0
   -4.7055   -0.0221    0.9398 C   0  0  0  0  0  0  0  0  0  2  0  0
    5.1293    1.3242   -0.6079 H   0  0  0  0  0  0  0  0  0  0  0  0
    4.8925    0.2727   -2.0134 H   0  0  0  0  0  0  0  0  0  0  0  0
    5.2390   -0.4343   -0.4268 H   0  0  0  0  0  0  0  0  0  0  0  0
   -5.0062   -1.0387    1.2105 H   0  0  0  0  0  0  0  0  0  0  0  0
   -5.2900    0.2836    0.0668 H   0  0  0  0  0  0  0  0  0  0  0  0
   -4.9646    0.6410    1.7707 H   0  0  0  0  0  0  0  0  0  0  0  0
  1  2  1  0
  2  3  3  0
  3  4  1  0
  4  5  3  0
  5  6  1  0
  6  7  3  0
  7  8  1  0
  1  9  1  0
  1 10  1  0
  1 11  1  0
  8 12  1  0
  8 13  1  0
  8 14  1  0
M  END
>  <anchor_atom_maps>  (30) 
1,2

>  <distance_A>  (30) 
9.604954334295106

>  <Rg_A>  (30) 
3.296746475917822

>  <energy_kcal_mol>  (30) 
-0.12237371007532032

>  <ensemble>  (30) 
ETKDGv3 unweighted sampling; not a thermodynamic population

$$$$
Rigid alkynyl synthetic attachment-point proxy 30
     RDKit          3D

 14 13  0  0  0  0  0  0  0  0999 V2000
    3.4361    2.0642   -2.3320 C   0  0  0  0  0  0  0  0  0  1  0  0
    2.3900    1.3298   -1.6220 C   0  0  0  0  0  0  0  0  0  0  0  0
    1.5311    0.7268   -1.0391 C   0  0  0  0  0  0  0  0  0  0  0  0
    0.4293   -0.0466   -0.2913 C   0  0  0  0  0  0  0  0  0  0  0  0
   -0.4293   -0.6494    0.2914 C   0  0  0  0  0  0  0  0  0  0  0  0
   -1.5311   -1.4228    1.0391 C   0  0  0  0  0  0  0  0  0  0  0  0
   -2.3900   -2.0258    1.6220 C   0  0  0  0  0  0  0  0  0  0  0  0
   -3.4362   -2.7601    2.3320 C   0  0  0  0  0  0  0  0  0  2  0  0
    3.1798    3.1247   -2.4144 H   0  0  0  0  0  0  0  0  0  0  0  0
    3.5720    1.6684   -3.3430 H   0  0  0  0  0  0  0  0  0  0  0  0
    4.3922    1.9861   -1.8057 H   0  0  0  0  0  0  0  0  0  0  0  0
   -3.0346   -3.6739    2.7802 H   0  0  0  0  0  0  0  0  0  0  0  0
   -3.8655   -2.1499    3.1322 H   0  0  0  0  0  0  0  0  0  0  0  0
   -4.2440   -3.0432    1.6504 H   0  0  0  0  0  0  0  0  0  0  0  0
  1  2  1  0
  2  3  3  0
  3  4  1  0
  4  5  3  0
  5  6  1  0
  6  7  3  0
  7  8  1  0
  1  9  1  0
  1 10  1  0
  1 11  1  0
  8 12  1  0
  8 13  1  0
  8 14  1  0
M  END
>  <anchor_atom_maps>  (31) 
1,2

>  <distance_A>  (31) 
9.604953486894901

>  <Rg_A>  (31) 
3.2967462202472904

>  <energy_kcal_mol>  (31) 
-0.12237370929292132

>  <ensemble>  (31) 
ETKDGv3 unweighted sampling; not a thermodynamic population

$$$$
Rigid alkynyl synthetic attachment-point proxy 31
     RDKit          3D

 14 13  0  0  0  0  0  0  0  0999 V2000
    4.7596    0.3726   -0.2490 C   0  0  0  0  0  0  0  0  0  1  0  0
    3.3105    0.2592   -0.0903 C   0  0  0  0  0  0  0  0  0  0  0  0
    2.1208    0.1660    0.0399 C   0  0  0  0  0  0  0  0  0  0  0  0
    0.5947    0.0466    0.2070 C   0  0  0  0  0  0  0  0  0  0  0  0
   -0.5947   -0.0465    0.3372 C   0  0  0  0  0  0  0  0  0  0  0  0
   -2.1208   -0.1660    0.5043 C   0  0  0  0  0  0  0  0  0  0  0  0
   -3.3105   -0.2592    0.6346 C   0  0  0  0  0  0  0  0  0  0  0  0
   -4.7596   -0.3726    0.7932 C   0  0  0  0  0  0  0  0  0  2  0  0
    5.0494    0.2265   -1.2939 H   0  0  0  0  0  0  0  0  0  0  0  0
    5.2773   -0.3786    0.3550 H   0  0  0  0  0  0  0  0  0  0  0  0
    5.1094    1.3606    0.0652 H   0  0  0  0  0  0  0  0  0  0  0  0
   -5.1949    0.5862    1.0904 H   0  0  0  0  0  0  0  0  0  0  0  0
   -5.2307   -0.6832   -0.1442 H   0  0  0  0  0  0  0  0  0  0  0  0
   -5.0105   -1.1115    1.5602 H   0  0  0  0  0  0  0  0  0  0  0  0
  1  2  1  0
  2  3  3  0
  3  4  1  0
  4  5  3  0
  5  6  1  0
  6  7  3  0
  7  8  1  0
  1  9  1  0
  1 10  1  0
  1 11  1  0
  8 12  1  0
  8 13  1  0
  8 14  1  0
M  END
>  <anchor_atom_maps>  (32) 
1,2

>  <distance_A>  (32) 
9.604954240713694

>  <Rg_A>  (32) 
3.296746426542595

>  <energy_kcal_mol>  (32) 
-0.12237372006192626

>  <ensemble>  (32) 
ETKDGv3 unweighted sampling; not a thermodynamic population

$$$$
Rigid alkynyl synthetic attachment-point proxy 32
     RDKit          3D

 14 13  0  0  0  0  0  0  0  0999 V2000
    4.6041   -1.3661    0.1893 C   0  0  0  0  0  0  0  0  0  1  0  0
    3.2024   -0.9501    0.1848 C   0  0  0  0  0  0  0  0  0  0  0  0
    2.0515   -0.6087    0.1811 C   0  0  0  0  0  0  0  0  0  0  0  0
    0.5752   -0.1707    0.1764 C   0  0  0  0  0  0  0  0  0  0  0  0
   -0.5752    0.1707    0.1728 C   0  0  0  0  0  0  0  0  0  0  0  0
   -2.0515    0.6087    0.1681 C   0  0  0  0  0  0  0  0  0  0  0  0
   -3.2024    0.9502    0.1644 C   0  0  0  0  0  0  0  0  0  0  0  0
   -4.6041    1.3660    0.1600 C   0  0  0  0  0  0  0  0  0  2  0  0
    4.7249   -2.3216    0.7084 H   0  0  0  0  0  0  0  0  0  0  0  0
    5.2288   -0.6237    0.6951 H   0  0  0  0  0  0  0  0  0  0  0  0
    4.9781   -1.4851   -0.8321 H   0  0  0  0  0  0  0  0  0  0  0  0
   -4.7869    2.1100   -0.6213 H   0  0  0  0  0  0  0  0  0  0  0  0
   -5.2629    0.5120   -0.0238 H   0  0  0  0  0  0  0  0  0  0  0  0
   -4.8820    1.8083    1.1214 H   0  0  0  0  0  0  0  0  0  0  0  0
  1  2  1  0
  2  3  3  0
  3  4  1  0
  4  5  3  0
  5  6  1  0
  6  7  3  0
  7  8  1  0
  1  9  1  0
  1 10  1  0
  1 11  1  0
  8 12  1  0
  8 13  1  0
  8 14  1  0
M  END
>  <anchor_atom_maps>  (33) 
1,2

>  <distance_A>  (33) 
9.604953888809769

>  <Rg_A>  (33) 
3.2967463483090342

>  <energy_kcal_mol>  (33) 
-0.12237371504362951

>  <ensemble>  (33) 
ETKDGv3 unweighted sampling; not a thermodynamic population

$$$$
Rigid alkynyl synthetic attachment-point proxy 33
     RDKit          3D

 14 13  0  0  0  0  0  0  0  0999 V2000
   -0.4375   -4.5095    1.6767 C   0  0  0  0  0  0  0  0  0  1  0  0
   -0.3043   -3.1365    1.1917 C   0  0  0  0  0  0  0  0  0  0  0  0
   -0.1949   -2.0093    0.7935 C   0  0  0  0  0  0  0  0  0  0  0  0
   -0.0547   -0.5634    0.2828 C   0  0  0  0  0  0  0  0  0  0  0  0
    0.0547    0.5634   -0.1152 C   0  0  0  0  0  0  0  0  0  0  0  0
    0.1949    2.0093   -0.6260 C   0  0  0  0  0  0  0  0  0  0  0  0
    0.3043    3.1365   -1.0241 C   0  0  0  0  0  0  0  0  0  0  0  0
    0.4375    4.5095   -1.5091 C   0  0  0  0  0  0  0  0  0  2  0  0
    0.3417   -4.7409    2.4091 H   0  0  0  0  0  0  0  0  0  0  0  0
   -0.3512   -5.2236    0.8522 H   0  0  0  0  0  0  0  0  0  0  0  0
   -1.4094   -4.6604    2.1560 H   0  0  0  0  0  0  0  0  0  0  0  0
    0.8762    5.1529   -0.7405 H   0  0  0  0  0  0  0  0  0  0  0  0
   -0.5385    4.9227   -1.7810 H   0  0  0  0  0  0  0  0  0  0  0  0
    1.0811    4.5494   -2.3930 H   0  0  0  0  0  0  0  0  0  0  0  0
  1  2  1  0
  2  3  3  0
  3  4  1  0
  4  5  3  0
  5  6  1  0
  6  7  3  0
  7  8  1  0
  1  9  1  0
  1 10  1  0
  1 11  1  0
  8 12  1  0
  8 13  1  0
  8 14  1  0
M  END
>  <anchor_atom_maps>  (34) 
1,2

>  <distance_A>  (34) 
9.604954002808693

>  <Rg_A>  (34) 
3.2967463897967715

>  <energy_kcal_mol>  (34) 
-0.12237371837185121

>  <ensemble>  (34) 
ETKDGv3 unweighted sampling; not a thermodynamic population

$$$$
Rigid alkynyl synthetic attachment-point proxy 34
     RDKit          3D

 14 13  0  0  0  0  0  0  0  0999 V2000
    4.7522    0.4600    0.6510 C   0  0  0  0  0  0  0  0  0  1  0  0
    3.3054    0.3200    0.4932 C   0  0  0  0  0  0  0  0  0  0  0  0
    2.1175    0.2050    0.3636 C   0  0  0  0  0  0  0  0  0  0  0  0
    0.5937    0.0575    0.1973 C   0  0  0  0  0  0  0  0  0  0  0  0
   -0.5937   -0.0574    0.0677 C   0  0  0  0  0  0  0  0  0  0  0  0
   -2.1175   -0.2049   -0.0986 C   0  0  0  0  0  0  0  0  0  0  0  0
   -3.3054   -0.3199   -0.2282 C   0  0  0  0  0  0  0  0  0  0  0  0
   -4.7522   -0.4600   -0.3861 C   0  0  0  0  0  0  0  0  0  2  0  0
    5.2476   -0.5129    0.5786 H   0  0  0  0  0  0  0  0  0  0  0  0
    4.9973    0.8940    1.6251 H   0  0  0  0  0  0  0  0  0  0  0  0
    5.1672    1.1107   -0.1245 H   0  0  0  0  0  0  0  0  0  0  0  0
   -5.2816   -0.0055    0.4567 H   0  0  0  0  0  0  0  0  0  0  0  0
   -5.0927    0.0285   -1.3040 H   0  0  0  0  0  0  0  0  0  0  0  0
   -5.0379   -1.5150   -0.4371 H   0  0  0  0  0  0  0  0  0  0  0  0
  1  2  1  0
  2  3  3  0
  3  4  1  0
  4  5  3  0
  5  6  1  0
  6  7  3  0
  7  8  1  0
  1  9  1  0
  1 10  1  0
  1 11  1  0
  8 12  1  0
  8 13  1  0
  8 14  1  0
M  END
>  <anchor_atom_maps>  (35) 
1,2

>  <distance_A>  (35) 
9.604954422502566

>  <Rg_A>  (35) 
3.2967465026185643

>  <energy_kcal_mol>  (35) 
-0.1223737128407639

>  <ensemble>  (35) 
ETKDGv3 unweighted sampling; not a thermodynamic population

$$$$
Rigid alkynyl synthetic attachment-point proxy 35
     RDKit          3D

 14 13  0  0  0  0  0  0  0  0999 V2000
   -4.7797    0.3201   -0.0166 C   0  0  0  0  0  0  0  0  0  1  0  0
   -3.3245    0.2227    0.0871 C   0  0  0  0  0  0  0  0  0  0  0  0
   -2.1297    0.1427    0.1722 C   0  0  0  0  0  0  0  0  0  0  0  0
   -0.5972    0.0401    0.2814 C   0  0  0  0  0  0  0  0  0  0  0  0
    0.5972   -0.0399    0.3665 C   0  0  0  0  0  0  0  0  0  0  0  0
    2.1298   -0.1426    0.4757 C   0  0  0  0  0  0  0  0  0  0  0  0
    3.3245   -0.2227    0.5609 C   0  0  0  0  0  0  0  0  0  0  0  0
    4.7797   -0.3202    0.6647 C   0  0  0  0  0  0  0  0  0  2  0  0
   -5.1357    1.2732    0.3860 H   0  0  0  0  0  0  0  0  0  0  0  0
   -5.2646   -0.4863    0.5416 H   0  0  0  0  0  0  0  0  0  0  0  0
   -5.1011    0.2513   -1.0602 H   0  0  0  0  0  0  0  0  0  0  0  0
    5.1248    0.0327    1.6411 H   0  0  0  0  0  0  0  0  0  0  0  0
    5.2663    0.2848   -0.1063 H   0  0  0  0  0  0  0  0  0  0  0  0
    5.1101   -1.3560    0.5420 H   0  0  0  0  0  0  0  0  0  0  0  0
  1  2  1  0
  2  3  3  0
  3  4  1  0
  4  5  3  0
  5  6  1  0
  6  7  3  0
  7  8  1  0
  1  9  1  0
  1 10  1  0
  1 11  1  0
  8 12  1  0
  8 13  1  0
  8 14  1  0
M  END
>  <anchor_atom_maps>  (36) 
1,2

>  <distance_A>  (36) 
9.604954251980498

>  <Rg_A>  (36) 
3.296746503988236

>  <energy_kcal_mol>  (36) 
-0.12237367168635657

>  <ensemble>  (36) 
ETKDGv3 unweighted sampling; not a thermodynamic population

$$$$
Rigid alkynyl synthetic attachment-point proxy 36
     RDKit          3D

 14 13  0  0  0  0  0  0  0  0999 V2000
    4.3225   -2.0924   -0.2380 C   0  0  0  0  0  0  0  0  0  1  0  0
    3.0065   -1.4553   -0.2260 C   0  0  0  0  0  0  0  0  0  0  0  0
    1.9261   -0.9323   -0.2162 C   0  0  0  0  0  0  0  0  0  0  0  0
    0.5401   -0.2614   -0.2036 C   0  0  0  0  0  0  0  0  0  0  0  0
   -0.5401    0.2614   -0.1938 C   0  0  0  0  0  0  0  0  0  0  0  0
   -1.9261    0.9323   -0.1812 C   0  0  0  0  0  0  0  0  0  0  0  0
   -3.0065    1.4553   -0.1714 C   0  0  0  0  0  0  0  0  0  0  0  0
   -4.3225    2.0924   -0.1595 C   0  0  0  0  0  0  0  0  0  2  0  0
    4.5112   -2.5780   -1.2001 H   0  0  0  0  0  0  0  0  0  0  0  0
    5.1134   -1.3553   -0.0691 H   0  0  0  0  0  0  0  0  0  0  0  0
    4.3942   -2.8526    0.5457 H   0  0  0  0  0  0  0  0  0  0  0  0
   -4.2966    3.0494   -0.6892 H   0  0  0  0  0  0  0  0  0  0  0  0
   -4.6545    2.2810    0.8659 H   0  0  0  0  0  0  0  0  0  0  0  0
   -5.0677    1.4555   -0.6457 H   0  0  0  0  0  0  0  0  0  0  0  0
  1  2  1  0
  2  3  3  0
  3  4  1  0
  4  5  3  0
  5  6  1  0
  6  7  3  0
  7  8  1  0
  1  9  1  0
  1 10  1  0
  1 11  1  0
  8 12  1  0
  8 13  1  0
  8 14  1  0
M  END
>  <anchor_atom_maps>  (37) 
1,2

>  <distance_A>  (37) 
9.6049540127422

>  <Rg_A>  (37) 
3.296746383652969

>  <energy_kcal_mol>  (37) 
-0.12237371499820543

>  <ensemble>  (37) 
ETKDGv3 unweighted sampling; not a thermodynamic population

$$$$
Rigid alkynyl synthetic attachment-point proxy 37
     RDKit          3D

 14 13  0  0  0  0  0  0  0  0999 V2000
   -4.5710    1.3870    0.5507 C   0  0  0  0  0  0  0  0  0  1  0  0
   -3.1794    0.9647    0.3999 C   0  0  0  0  0  0  0  0  0  0  0  0
   -2.0368    0.6180    0.2760 C   0  0  0  0  0  0  0  0  0  0  0  0
   -0.5711    0.1733    0.1170 C   0  0  0  0  0  0  0  0  0  0  0  0
    0.5711   -0.1733   -0.0068 C   0  0  0  0  0  0  0  0  0  0  0  0
    2.0368   -0.6180   -0.1658 C   0  0  0  0  0  0  0  0  0  0  0  0
    3.1794   -0.9647   -0.2897 C   0  0  0  0  0  0  0  0  0  0  0  0
    4.5710   -1.3870   -0.4407 C   0  0  0  0  0  0  0  0  0  2  0  0
   -5.2067    0.9084   -0.2003 H   0  0  0  0  0  0  0  0  0  0  0  0
   -4.9540    1.1191    1.5401 H   0  0  0  0  0  0  0  0  0  0  0  0
   -4.6639    2.4709    0.4330 H   0  0  0  0  0  0  0  0  0  0  0  0
    4.9181   -1.2246   -1.4655 H   0  0  0  0  0  0  0  0  0  0  0  0
    4.6824   -2.4506   -0.2092 H   0  0  0  0  0  0  0  0  0  0  0  0
    5.2241   -0.8232    0.2322 H   0  0  0  0  0  0  0  0  0  0  0  0
  1  2  1  0
  2  3  3  0
  3  4  1  0
  4  5  3  0
  5  6  1  0
  6  7  3  0
  7  8  1  0
  1  9  1  0
  1 10  1  0
  1 11  1  0
  8 12  1  0
  8 13  1  0
  8 14  1  0
M  END
>  <anchor_atom_maps>  (38) 
1,2

>  <distance_A>  (38) 
9.604953946242198

>  <Rg_A>  (38) 
3.296746386354659

>  <energy_kcal_mol>  (38) 
-0.12237371125791394

>  <ensemble>  (38) 
ETKDGv3 unweighted sampling; not a thermodynamic population

$$$$
Rigid alkynyl synthetic attachment-point proxy 38
     RDKit          3D

 14 13  0  0  0  0  0  0  0  0999 V2000
   -4.7106    0.3727    0.7561 C   0  0  0  0  0  0  0  0  0  1  0  0
   -3.2764    0.2592    0.4950 C   0  0  0  0  0  0  0  0  0  0  0  0
   -2.0990    0.1661    0.2807 C   0  0  0  0  0  0  0  0  0  0  0  0
   -0.5885    0.0466    0.0058 C   0  0  0  0  0  0  0  0  0  0  0  0
    0.5885   -0.0466   -0.2085 C   0  0  0  0  0  0  0  0  0  0  0  0
    2.0990   -0.1661   -0.4835 C   0  0  0  0  0  0  0  0  0  0  0  0
    3.2764   -0.2592   -0.6978 C   0  0  0  0  0  0  0  0  0  0  0  0
    4.7106   -0.3727   -0.9589 C   0  0  0  0  0  0  0  0  0  2  0  0
   -5.1480   -0.6092    0.9605 H   0  0  0  0  0  0  0  0  0  0  0  0
   -5.2302    0.8030   -0.1053 H   0  0  0  0  0  0  0  0  0  0  0  0
   -4.8991    1.0149    1.6217 H   0  0  0  0  0  0  0  0  0  0  0  0
    5.1904   -1.0224   -0.2207 H   0  0  0  0  0  0  0  0  0  0  0  0
    4.8933   -0.7944   -1.9518 H   0  0  0  0  0  0  0  0  0  0  0  0
    5.1935    0.6080   -0.9126 H   0  0  0  0  0  0  0  0  0  0  0  0
  1  2  1  0
  2  3  3  0
  3  4  1  0
  4  5  3  0
  5  6  1  0
  6  7  3  0
  7  8  1  0
  1  9  1  0
  1 10  1  0
  1 11  1  0
  8 12  1  0
  8 13  1  0
  8 14  1  0
M  END
>  <anchor_atom_maps>  (39) 
1,2

>  <distance_A>  (39) 
9.604953952886243

>  <Rg_A>  (39) 
3.2967463932519485

>  <energy_kcal_mol>  (39) 
-0.12237371737122386

>  <ensemble>  (39) 
ETKDGv3 unweighted sampling; not a thermodynamic population

$$$$
Rigid alkynyl synthetic attachment-point proxy 39
     RDKit          3D

 14 13  0  0  0  0  0  0  0  0999 V2000
   -4.6673    0.4625   -1.0448 C   0  0  0  0  0  0  0  0  0  1  0  0
   -3.2463    0.3302   -0.7267 C   0  0  0  0  0  0  0  0  0  0  0  0
   -2.0797    0.2215   -0.4655 C   0  0  0  0  0  0  0  0  0  0  0  0
   -0.5831    0.0822   -0.1305 C   0  0  0  0  0  0  0  0  0  0  0  0
    0.5831   -0.0264    0.1305 C   0  0  0  0  0  0  0  0  0  0  0  0
    2.0797   -0.1658    0.4655 C   0  0  0  0  0  0  0  0  0  0  0  0
    3.2463   -0.2744    0.7267 C   0  0  0  0  0  0  0  0  0  0  0  0
    4.6673   -0.4067    1.0448 C   0  0  0  0  0  0  0  0  0  2  0  0
   -4.8143    0.5993   -2.1204 H   0  0  0  0  0  0  0  0  0  0  0  0
   -5.2197   -0.4306   -0.7377 H   0  0  0  0  0  0  0  0  0  0  0  0
   -5.1027    1.3244   -0.5304 H   0  0  0  0  0  0  0  0  0  0  0  0
    4.9871    0.3814    1.7331 H   0  0  0  0  0  0  0  0  0  0  0  0
    4.8724   -1.3726    1.5160 H   0  0  0  0  0  0  0  0  0  0  0  0
    5.2772   -0.3346    0.1393 H   0  0  0  0  0  0  0  0  0  0  0  0
  1  2  1  0
  2  3  3  0
  3  4  1  0
  4  5  3  0
  5  6  1  0
  6  7  3  0
  7  8  1  0
  1  9  1  0
  1 10  1  0
  1 11  1  0
  8 12  1  0
  8 13  1  0
  8 14  1  0
M  END
>  <anchor_atom_maps>  (40) 
1,2

>  <distance_A>  (40) 
9.604953926455249

>  <Rg_A>  (40) 
3.296746350897574

>  <energy_kcal_mol>  (40) 
-0.12237372010880157

>  <ensemble>  (40) 
ETKDGv3 unweighted sampling; not a thermodynamic population

$$$$
Rigid alkynyl synthetic attachment-point proxy 40
     RDKit          3D

 14 13  0  0  0  0  0  0  0  0999 V2000
   -4.7399    0.3274   -0.5609 C   0  0  0  0  0  0  0  0  0  1  0  0
   -3.2968    0.2277   -0.3479 C   0  0  0  0  0  0  0  0  0  0  0  0
   -2.1120    0.1459   -0.1730 C   0  0  0  0  0  0  0  0  0  0  0  0
   -0.5922    0.0409    0.0514 C   0  0  0  0  0  0  0  0  0  0  0  0
    0.5922   -0.0409    0.2263 C   0  0  0  0  0  0  0  0  0  0  0  0
    2.1120   -0.1459    0.4507 C   0  0  0  0  0  0  0  0  0  0  0  0
    3.2968   -0.2277    0.6256 C   0  0  0  0  0  0  0  0  0  0  0  0
    4.7399   -0.3274    0.8386 C   0  0  0  0  0  0  0  0  0  2  0  0
   -5.0369   -0.2045   -1.4698 H   0  0  0  0  0  0  0  0  0  0  0  0
   -5.2885   -0.1062    0.2806 H   0  0  0  0  0  0  0  0  0  0  0  0
   -5.0470    1.3726   -0.6638 H   0  0  0  0  0  0  0  0  0  0  0  0
    5.0420   -1.3700    0.9760 H   0  0  0  0  0  0  0  0  0  0  0  0
    5.2886    0.0748   -0.0183 H   0  0  0  0  0  0  0  0  0  0  0  0
    5.0417    0.2334    1.7284 H   0  0  0  0  0  0  0  0  0  0  0  0
  1  2  1  0
  2  3  3  0
  3  4  1  0
  4  5  3  0
  5  6  1  0
  6  7  3  0
  7  8  1  0
  1  9  1  0
  1 10  1  0
  1 11  1  0
  8 12  1  0
  8 13  1  0
  8 14  1  0
M  END
>  <anchor_atom_maps>  (41) 
1,2

>  <distance_A>  (41) 
9.604953946639876

>  <Rg_A>  (41) 
3.296746377548398

>  <energy_kcal_mol>  (41) 
-0.12237371678627165

>  <ensemble>  (41) 
ETKDGv3 unweighted sampling; not a thermodynamic population

$$$$
Rigid alkynyl synthetic attachment-point proxy 41
     RDKit          3D

 14 13  0  0  0  0  0  0  0  0999 V2000
    4.7822   -0.3968   -0.4412 C   0  0  0  0  0  0  0  0  0  1  0  0
    3.3262   -0.3929   -0.3068 C   0  0  0  0  0  0  0  0  0  0  0  0
    2.1309   -0.3896   -0.1966 C   0  0  0  0  0  0  0  0  0  0  0  0
    0.5975   -0.3855   -0.0551 C   0  0  0  0  0  0  0  0  0  0  0  0
   -0.5975   -0.3823    0.0551 C   0  0  0  0  0  0  0  0  0  0  0  0
   -2.1309   -0.3781    0.1966 C   0  0  0  0  0  0  0  0  0  0  0  0
   -3.3262   -0.3749    0.3068 C   0  0  0  0  0  0  0  0  0  0  0  0
   -4.7822   -0.3710    0.4412 C   0  0  0  0  0  0  0  0  0  2  0  0
    5.0985   -1.0861   -1.2299 H   0  0  0  0  0  0  0  0  0  0  0  0
    5.2584   -0.7087    0.4932 H   0  0  0  0  0  0  0  0  0  0  0  0
    5.1525    0.6012   -0.6941 H   0  0  0  0  0  0  0  0  0  0  0  0
   -5.0785   -0.0978    1.4584 H   0  0  0  0  0  0  0  0  0  0  0  0
   -5.2348    0.3476   -0.2487 H   0  0  0  0  0  0  0  0  0  0  0  0
   -5.1961   -1.3596    0.2211 H   0  0  0  0  0  0  0  0  0  0  0  0
  1  2  1  0
  2  3  3  0
  3  4  1  0
  4  5  3  0
  5  6  1  0
  6  7  3  0
  7  8  1  0
  1  9  1  0
  1 10  1  0
  1 11  1  0
  8 12  1  0
  8 13  1  0
  8 14  1  0
M  END
>  <anchor_atom_maps>  (42) 
1,2

>  <distance_A>  (42) 
9.604953804481932

>  <Rg_A>  (42) 
3.2967463367111898

>  <energy_kcal_mol>  (42) 
-0.12237371786525574

>  <ensemble>  (42) 
ETKDGv3 unweighted sampling; not a thermodynamic population

$$$$
Rigid alkynyl synthetic attachment-point proxy 42
     RDKit          3D

 14 13  0  0  0  0  0  0  0  0999 V2000
    4.6561   -0.8721    1.0263 C   0  0  0  0  0  0  0  0  0  1  0  0
    3.2385   -0.6066    0.7857 C   0  0  0  0  0  0  0  0  0  0  0  0
    2.0747   -0.3886    0.5883 C   0  0  0  0  0  0  0  0  0  0  0  0
    0.5817   -0.1090    0.3349 C   0  0  0  0  0  0  0  0  0  0  0  0
   -0.5817    0.1090    0.1375 C   0  0  0  0  0  0  0  0  0  0  0  0
   -2.0747    0.3886   -0.1158 C   0  0  0  0  0  0  0  0  0  0  0  0
   -3.2385    0.6066   -0.3133 C   0  0  0  0  0  0  0  0  0  0  0  0
   -4.6561    0.8721   -0.5539 C   0  0  0  0  0  0  0  0  0  2  0  0
    5.1856    0.0488    1.2885 H   0  0  0  0  0  0  0  0  0  0  0  0
    4.7850   -1.5833    1.8477 H   0  0  0  0  0  0  0  0  0  0  0  0
    5.1299   -1.2939    0.1348 H   0  0  0  0  0  0  0  0  0  0  0  0
   -5.2778    0.3792    0.1996 H   0  0  0  0  0  0  0  0  0  0  0  0
   -4.9596    0.5034   -1.5383 H   0  0  0  0  0  0  0  0  0  0  0  0
   -4.8631    1.9458   -0.5150 H   0  0  0  0  0  0  0  0  0  0  0  0
  1  2  1  0
  2  3  3  0
  3  4  1  0
  4  5  3  0
  5  6  1  0
  6  7  3  0
  7  8  1  0
  1  9  1  0
  1 10  1  0
  1 11  1  0
  8 12  1  0
  8 13  1  0
  8 14  1  0
M  END
>  <anchor_atom_maps>  (43) 
1,2

>  <distance_A>  (43) 
9.604953417980735

>  <Rg_A>  (43) 
3.2967461626262122

>  <energy_kcal_mol>  (43) 
-0.1223737189379753

>  <ensemble>  (43) 
ETKDGv3 unweighted sampling; not a thermodynamic population

$$$$
Rigid alkynyl synthetic attachment-point proxy 43
     RDKit          3D

 14 13  0  0  0  0  0  0  0  0999 V2000
   -4.7832   -0.4293   -0.0078 C   0  0  0  0  0  0  0  0  0  1  0  0
   -3.3270   -0.2986   -0.0057 C   0  0  0  0  0  0  0  0  0  0  0  0
   -2.1313   -0.1913   -0.0039 C   0  0  0  0  0  0  0  0  0  0  0  0
   -0.5976   -0.0537   -0.0017 C   0  0  0  0  0  0  0  0  0  0  0  0
    0.5976    0.0536    0.0000 C   0  0  0  0  0  0  0  0  0  0  0  0
    2.1313    0.1913    0.0023 C   0  0  0  0  0  0  0  0  0  0  0  0
    3.3270    0.2986    0.0040 C   0  0  0  0  0  0  0  0  0  0  0  0
    4.7832    0.4294    0.0061 C   0  0  0  0  0  0  0  0  0  2  0  0
   -5.1014   -1.2282   -0.6844 H   0  0  0  0  0  0  0  0  0  0  0  0
   -5.1544   -0.6654    0.9941 H   0  0  0  0  0  0  0  0  0  0  0  0
   -5.2571    0.5011   -0.3347 H   0  0  0  0  0  0  0  0  0  0  0  0
    5.0993    1.2514    0.6553 H   0  0  0  0  0  0  0  0  0  0  0  0
    5.2560   -0.4890    0.3670 H   0  0  0  0  0  0  0  0  0  0  0  0
    5.1575    0.6301   -1.0022 H   0  0  0  0  0  0  0  0  0  0  0  0
  1  2  1  0
  2  3  3  0
  3  4  1  0
  4  5  3  0
  5  6  1  0
  6  7  3  0
  7  8  1  0
  1  9  1  0
  1 10  1  0
  1 11  1  0
  8 12  1  0
  8 13  1  0
  8 14  1  0
M  END
>  <anchor_atom_maps>  (44) 
1,2

>  <distance_A>  (44) 
9.604953927143766

>  <Rg_A>  (44) 
3.2967463708830698

>  <energy_kcal_mol>  (44) 
-0.12237371640681052

>  <ensemble>  (44) 
ETKDGv3 unweighted sampling; not a thermodynamic population

$$$$
Rigid alkynyl synthetic attachment-point proxy 44
     RDKit          3D

 14 13  0  0  0  0  0  0  0  0999 V2000
    4.7901    0.1446   -0.4080 C   0  0  0  0  0  0  0  0  0  1  0  0
    3.3317    0.1006   -0.3127 C   0  0  0  0  0  0  0  0  0  0  0  0
    2.1344    0.0644   -0.2345 C   0  0  0  0  0  0  0  0  0  0  0  0
    0.5985    0.0180   -0.1341 C   0  0  0  0  0  0  0  0  0  0  0  0
   -0.5985   -0.0181   -0.0559 C   0  0  0  0  0  0  0  0  0  0  0  0
   -2.1344   -0.0645    0.0445 C   0  0  0  0  0  0  0  0  0  0  0  0
   -3.3317   -0.1006    0.1227 C   0  0  0  0  0  0  0  0  0  0  0  0
   -4.7901   -0.1446    0.2180 C   0  0  0  0  0  0  0  0  0  2  0  0
    5.1570   -0.6071   -1.1134 H   0  0  0  0  0  0  0  0  0  0  0  0
    5.1282    1.1266   -0.7522 H   0  0  0  0  0  0  0  0  0  0  0  0
    5.2499   -0.0505    0.5655 H   0  0  0  0  0  0  0  0  0  0  0  0
   -5.1056   -0.7007    1.1059 H   0  0  0  0  0  0  0  0  0  0  0  0
   -5.2230   -0.6332   -0.6601 H   0  0  0  0  0  0  0  0  0  0  0  0
   -5.2065    0.8651    0.2843 H   0  0  0  0  0  0  0  0  0  0  0  0
  1  2  1  0
  2  3  3  0
  3  4  1  0
  4  5  3  0
  5  6  1  0
  6  7  3  0
  7  8  1  0
  1  9  1  0
  1 10  1  0
  1 11  1  0
  8 12  1  0
  8 13  1  0
  8 14  1  0
M  END
>  <anchor_atom_maps>  (45) 
1,2

>  <distance_A>  (45) 
9.604954120120242

>  <Rg_A>  (45) 
3.296746443107608

>  <energy_kcal_mol>  (45) 
-0.12237371611323059

>  <ensemble>  (45) 
ETKDGv3 unweighted sampling; not a thermodynamic population

$$$$
Rigid alkynyl synthetic attachment-point proxy 45
     RDKit          3D

 14 13  0  0  0  0  0  0  0  0999 V2000
    4.7413    0.5793    0.3093 C   0  0  0  0  0  0  0  0  0  1  0  0
    3.2978    0.4029    0.1576 C   0  0  0  0  0  0  0  0  0  0  0  0
    2.1126    0.2581    0.0330 C   0  0  0  0  0  0  0  0  0  0  0  0
    0.5924    0.0724   -0.1269 C   0  0  0  0  0  0  0  0  0  0  0  0
   -0.5924   -0.0724   -0.2514 C   0  0  0  0  0  0  0  0  0  0  0  0
   -2.1126   -0.2581   -0.4113 C   0  0  0  0  0  0  0  0  0  0  0  0
   -3.2978   -0.4029   -0.5359 C   0  0  0  0  0  0  0  0  0  0  0  0
   -4.7413   -0.5793   -0.6877 C   0  0  0  0  0  0  0  0  0  2  0  0
    5.0167    1.6340    0.2147 H   0  0  0  0  0  0  0  0  0  0  0  0
    5.2848    0.0167   -0.4557 H   0  0  0  0  0  0  0  0  0  0  0  0
    5.0754    0.2280    1.2902 H   0  0  0  0  0  0  0  0  0  0  0  0
   -5.2519    0.3883   -0.7058 H   0  0  0  0  0  0  0  0  0  0  0  0
   -5.1513   -1.1638    0.1414 H   0  0  0  0  0  0  0  0  0  0  0  0
   -4.9736   -1.1031   -1.6198 H   0  0  0  0  0  0  0  0  0  0  0  0
  1  2  1  0
  2  3  3  0
  3  4  1  0
  4  5  3  0
  5  6  1  0
  6  7  3  0
  7  8  1  0
  1  9  1  0
  1 10  1  0
  1 11  1  0
  8 12  1  0
  8 13  1  0
  8 14  1  0
M  END
>  <anchor_atom_maps>  (46) 
1,2

>  <distance_A>  (46) 
9.60495349418289

>  <Rg_A>  (46) 
3.296746255609116

>  <energy_kcal_mol>  (46) 
-0.1223737199760904

>  <ensemble>  (46) 
ETKDGv3 unweighted sampling; not a thermodynamic population

$$$$
Rigid alkynyl synthetic attachment-point proxy 46
     RDKit          3D

 14 13  0  0  0  0  0  0  0  0999 V2000
   -2.6950   -0.5529    4.0816 C   0  0  0  0  0  0  0  0  0  1  0  0
   -1.8745   -0.3846    2.8832 C   0  0  0  0  0  0  0  0  0  0  0  0
   -1.2008   -0.2464    1.8992 C   0  0  0  0  0  0  0  0  0  0  0  0
   -0.3367   -0.0691    0.6370 C   0  0  0  0  0  0  0  0  0  0  0  0
    0.3367    0.0691   -0.3466 C   0  0  0  0  0  0  0  0  0  0  0  0
    1.2008    0.2463   -1.6088 C   0  0  0  0  0  0  0  0  0  0  0  0
    1.8745    0.3845   -2.5927 C   0  0  0  0  0  0  0  0  0  0  0  0
    2.6950    0.5529   -3.7912 C   0  0  0  0  0  0  0  0  0  2  0  0
   -3.1887    0.3859    4.3504 H   0  0  0  0  0  0  0  0  0  0  0  0
   -3.4689   -1.3093    3.9205 H   0  0  0  0  0  0  0  0  0  0  0  0
   -2.0826   -0.8696    4.9313 H   0  0  0  0  0  0  0  0  0  0  0  0
    2.6996    1.5977   -4.1162 H   0  0  0  0  0  0  0  0  0  0  0  0
    2.3111   -0.0569   -4.6146 H   0  0  0  0  0  0  0  0  0  0  0  0
    3.7295    0.2523   -3.6000 H   0  0  0  0  0  0  0  0  0  0  0  0
  1  2  1  0
  2  3  3  0
  3  4  1  0
  4  5  3  0
  5  6  1  0
  6  7  3  0
  7  8  1  0
  1  9  1  0
  1 10  1  0
  1 11  1  0
  8 12  1  0
  8 13  1  0
  8 14  1  0
M  END
>  <anchor_atom_maps>  (47) 
1,2

>  <distance_A>  (47) 
9.604953790127418

>  <Rg_A>  (47) 
3.2967462826043223

>  <energy_kcal_mol>  (47) 
-0.122373718382333

>  <ensemble>  (47) 
ETKDGv3 unweighted sampling; not a thermodynamic population

$$$$
Rigid alkynyl synthetic attachment-point proxy 47
     RDKit          3D

 14 13  0  0  0  0  0  0  0  0999 V2000
    4.7580    0.1291   -0.4452 C   0  0  0  0  0  0  0  0  0  1  0  0
    3.3094    0.0898   -0.2506 C   0  0  0  0  0  0  0  0  0  0  0  0
    2.1201    0.0575   -0.0909 C   0  0  0  0  0  0  0  0  0  0  0  0
    0.5945    0.0161    0.1140 C   0  0  0  0  0  0  0  0  0  0  0  0
   -0.5945   -0.0161    0.2738 C   0  0  0  0  0  0  0  0  0  0  0  0
   -2.1201   -0.0575    0.4787 C   0  0  0  0  0  0  0  0  0  0  0  0
   -3.3094   -0.0898    0.6385 C   0  0  0  0  0  0  0  0  0  0  0  0
   -4.7580   -0.1291    0.8331 C   0  0  0  0  0  0  0  0  0  2  0  0
    5.2211    0.8597    0.2248 H   0  0  0  0  0  0  0  0  0  0  0  0
    5.0052    0.4077   -1.4740 H   0  0  0  0  0  0  0  0  0  0  0  0
    5.2048   -0.8488   -0.2419 H   0  0  0  0  0  0  0  0  0  0  0  0
   -5.1356   -1.1518    0.7403 H   0  0  0  0  0  0  0  0  0  0  0  0
   -5.0277    0.2435    1.8259 H   0  0  0  0  0  0  0  0  0  0  0  0
   -5.2677    0.4897    0.0884 H   0  0  0  0  0  0  0  0  0  0  0  0
  1  2  1  0
  2  3  3  0
  3  4  1  0
  4  5  3  0
  5  6  1  0
  6  7  3  0
  7  8  1  0
  1  9  1  0
  1 10  1  0
  1 11  1  0
  8 12  1  0
  8 13  1  0
  8 14  1  0
M  END
>  <anchor_atom_maps>  (48) 
1,2

>  <distance_A>  (48) 
9.60495365733613

>  <Rg_A>  (48) 
3.2967463225506255

>  <energy_kcal_mol>  (48) 
-0.12237371758955183

>  <ensemble>  (48) 
ETKDGv3 unweighted sampling; not a thermodynamic population

$$$$
Rigid alkynyl synthetic attachment-point proxy 48
     RDKit          3D

 14 13  0  0  0  0  0  0  0  0999 V2000
    4.7850    0.4053    0.0117 C   0  0  0  0  0  0  0  0  0  1  0  0
    3.3282    0.2819   -0.0050 C   0  0  0  0  0  0  0  0  0  0  0  0
    2.1321    0.1806   -0.0187 C   0  0  0  0  0  0  0  0  0  0  0  0
    0.5978    0.0506   -0.0363 C   0  0  0  0  0  0  0  0  0  0  0  0
   -0.5978   -0.0506   -0.0500 C   0  0  0  0  0  0  0  0  0  0  0  0
   -2.1321   -0.1806   -0.0676 C   0  0  0  0  0  0  0  0  0  0  0  0
   -3.3282   -0.2819   -0.0813 C   0  0  0  0  0  0  0  0  0  0  0  0
   -4.7850   -0.4053   -0.0979 C   0  0  0  0  0  0  0  0  0  2  0  0
    5.0977    1.3792   -0.3767 H   0  0  0  0  0  0  0  0  0  0  0  0
    5.1725    0.3058    1.0301 H   0  0  0  0  0  0  0  0  0  0  0  0
    5.2485   -0.3706   -0.6050 H   0  0  0  0  0  0  0  0  0  0  0  0
   -5.1872   -0.1371   -1.0795 H   0  0  0  0  0  0  0  0  0  0  0  0
   -5.2401    0.2543    0.6470 H   0  0  0  0  0  0  0  0  0  0  0  0
   -5.0913   -1.4317    0.1254 H   0  0  0  0  0  0  0  0  0  0  0  0
  1  2  1  0
  2  3  3  0
  3  4  1  0
  4  5  3  0
  5  6  1  0
  6  7  3  0
  7  8  1  0
  1  9  1  0
  1 10  1  0
  1 11  1  0
  8 12  1  0
  8 13  1  0
  8 14  1  0
M  END
>  <anchor_atom_maps>  (49) 
1,2

>  <distance_A>  (49) 
9.60495333135008

>  <Rg_A>  (49) 
3.29674622799466

>  <energy_kcal_mol>  (49) 
-0.12237371236896073

>  <ensemble>  (49) 
ETKDGv3 unweighted sampling; not a thermodynamic population

$$$$
Rigid alkynyl synthetic attachment-point proxy 49
     RDKit          3D

 14 13  0  0  0  0  0  0  0  0999 V2000
   -4.7182   -0.7118    0.5364 C   0  0  0  0  0  0  0  0  0  1  0  0
   -3.2817   -0.4934    0.3731 C   0  0  0  0  0  0  0  0  0  0  0  0
   -2.1024   -0.3141    0.2390 C   0  0  0  0  0  0  0  0  0  0  0  0
   -0.5895   -0.0841    0.0670 C   0  0  0  0  0  0  0  0  0  0  0  0
    0.5895    0.0952   -0.0670 C   0  0  0  0  0  0  0  0  0  0  0  0
    2.1024    0.3252   -0.2390 C   0  0  0  0  0  0  0  0  0  0  0  0
    3.2817    0.5045   -0.3731 C   0  0  0  0  0  0  0  0  0  0  0  0
    4.7182    0.7230   -0.5364 C   0  0  0  0  0  0  0  0  0  2  0  0
   -5.2464   -0.5501   -0.4080 H   0  0  0  0  0  0  0  0  0  0  0  0
   -4.9212   -1.7346    0.8680 H   0  0  0  0  0  0  0  0  0  0  0  0
   -5.1343   -0.0252    1.2798 H   0  0  0  0  0  0  0  0  0  0  0  0
    4.9347    1.7830   -0.6996 H   0  0  0  0  0  0  0  0  0  0  0  0
    5.1022    0.1623   -1.3940 H   0  0  0  0  0  0  0  0  0  0  0  0
    5.2651    0.3980    0.3538 H   0  0  0  0  0  0  0  0  0  0  0  0
  1  2  1  0
  2  3  3  0
  3  4  1  0
  4  5  3  0
  5  6  1  0
  6  7  3  0
  7  8  1  0
  1  9  1  0
  1 10  1  0
  1 11  1  0
  8 12  1  0
  8 13  1  0
  8 14  1  0
M  END
>  <anchor_atom_maps>  (50) 
1,2

>  <distance_A>  (50) 
9.604953991637064

>  <Rg_A>  (50) 
3.296746384194824

>  <energy_kcal_mol>  (50) 
-0.1223737163957894

>  <ensemble>  (50) 
ETKDGv3 unweighted sampling; not a thermodynamic population

$$$$
Rigid alkynyl synthetic attachment-point proxy 50
     RDKit          3D

 14 13  0  0  0  0  0  0  0  0999 V2000
   -3.0850   -0.4424   -3.6745 C   0  0  0  0  0  0  0  0  0  1  0  0
   -2.1458   -0.3782   -2.5558 C   0  0  0  0  0  0  0  0  0  0  0  0
   -1.3746   -0.3255   -1.6373 C   0  0  0  0  0  0  0  0  0  0  0  0
   -0.3854   -0.2578   -0.4591 C   0  0  0  0  0  0  0  0  0  0  0  0
    0.3854   -0.2051    0.4591 C   0  0  0  0  0  0  0  0  0  0  0  0
    1.3746   -0.1375    1.6373 C   0  0  0  0  0  0  0  0  0  0  0  0
    2.1458   -0.0848    2.5558 C   0  0  0  0  0  0  0  0  0  0  0  0
    3.0850   -0.0205    3.6745 C   0  0  0  0  0  0  0  0  0  2  0  0
   -3.8497    0.3352   -3.5859 H   0  0  0  0  0  0  0  0  0  0  0  0
   -3.5896   -1.4128   -3.7040 H   0  0  0  0  0  0  0  0  0  0  0  0
   -2.5659   -0.3008   -4.6272 H   0  0  0  0  0  0  0  0  0  0  0  0
    2.9528   -0.8763    4.3434 H   0  0  0  0  0  0  0  0  0  0  0  0
    4.1187   -0.0267    3.3158 H   0  0  0  0  0  0  0  0  0  0  0  0
    2.9337    0.8927    4.2579 H   0  0  0  0  0  0  0  0  0  0  0  0
  1  2  1  0
  2  3  3  0
  3  4  1  0
  4  5  3  0
  5  6  1  0
  6  7  3  0
  7  8  1  0
  1  9  1  0
  1 10  1  0
  1 11  1  0
  8 12  1  0
  8 13  1  0
  8 14  1  0
M  END
>  <anchor_atom_maps>  (51) 
1,2

>  <distance_A>  (51) 
9.604952936707148

>  <Rg_A>  (51) 
3.296746066303483

>  <energy_kcal_mol>  (51) 
-0.12237371700096678

>  <ensemble>  (51) 
ETKDGv3 unweighted sampling; not a thermodynamic population

$$$$
Rigid alkynyl synthetic attachment-point proxy 51
     RDKit          3D

 14 13  0  0  0  0  0  0  0  0999 V2000
    2.5394    1.6954    3.8610 C   0  0  0  0  0  0  0  0  0  1  0  0
    1.7663    1.2975    2.6855 C   0  0  0  0  0  0  0  0  0  0  0  0
    1.1315    0.9709    1.7204 C   0  0  0  0  0  0  0  0  0  0  0  0
    0.3173    0.5519    0.4824 C   0  0  0  0  0  0  0  0  0  0  0  0
   -0.3173    0.2254   -0.4824 C   0  0  0  0  0  0  0  0  0  0  0  0
   -1.1315   -0.1936   -1.7204 C   0  0  0  0  0  0  0  0  0  0  0  0
   -1.7663   -0.5202   -2.6855 C   0  0  0  0  0  0  0  0  0  0  0  0
   -2.5394   -0.9181   -3.8610 C   0  0  0  0  0  0  0  0  0  2  0  0
    2.6524    2.7829    3.9029 H   0  0  0  0  0  0  0  0  0  0  0  0
    3.5391    1.2510    3.8381 H   0  0  0  0  0  0  0  0  0  0  0  0
    2.0444    1.3699    4.7809 H   0  0  0  0  0  0  0  0  0  0  0  0
   -2.6384   -2.0066   -3.9117 H   0  0  0  0  0  0  0  0  0  0  0  0
   -2.0528   -0.5784   -4.7803 H   0  0  0  0  0  0  0  0  0  0  0  0
   -3.5446   -0.4870   -3.8300 H   0  0  0  0  0  0  0  0  0  0  0  0
  1  2  1  0
  2  3  3  0
  3  4  1  0
  4  5  3  0
  5  6  1  0
  6  7  3  0
  7  8  1  0
  1  9  1  0
  1 10  1  0
  1 11  1  0
  8 12  1  0
  8 13  1  0
  8 14  1  0
M  END
>  <anchor_atom_maps>  (52) 
1,2

>  <distance_A>  (52) 
9.6049537487387

>  <Rg_A>  (52) 
3.2967463245496615

>  <energy_kcal_mol>  (52) 
-0.12237371533664551

>  <ensemble>  (52) 
ETKDGv3 unweighted sampling; not a thermodynamic population

$$$$
Rigid alkynyl synthetic attachment-point proxy 52
     RDKit          3D

 14 13  0  0  0  0  0  0  0  0999 V2000
   -3.5032   -0.3805   -3.2834 C   0  0  0  0  0  0  0  0  0  1  0  0
   -2.4366   -0.3490   -2.2838 C   0  0  0  0  0  0  0  0  0  0  0  0
   -1.5610   -0.3231   -1.4630 C   0  0  0  0  0  0  0  0  0  0  0  0
   -0.4377   -0.2899   -0.4102 C   0  0  0  0  0  0  0  0  0  0  0  0
    0.4377   -0.2640    0.4102 C   0  0  0  0  0  0  0  0  0  0  0  0
    1.5610   -0.2308    1.4630 C   0  0  0  0  0  0  0  0  0  0  0  0
    2.4366   -0.2049    2.2838 C   0  0  0  0  0  0  0  0  0  0  0  0
    3.5032   -0.1734    3.2834 C   0  0  0  0  0  0  0  0  0  2  0  0
   -3.5605    0.5704   -3.8216 H   0  0  0  0  0  0  0  0  0  0  0  0
   -3.3274   -1.1746   -4.0153 H   0  0  0  0  0  0  0  0  0  0  0  0
   -4.4735   -0.5625   -2.8118 H   0  0  0  0  0  0  0  0  0  0  0  0
    4.4812   -0.0622    2.8058 H   0  0  0  0  0  0  0  0  0  0  0  0
    3.3653    0.6644    3.9735 H   0  0  0  0  0  0  0  0  0  0  0  0
    3.5149   -1.0973    3.8695 H   0  0  0  0  0  0  0  0  0  0  0  0
  1  2  1  0
  2  3  3  0
  3  4  1  0
  4  5  3  0
  5  6  1  0
  6  7  3  0
  7  8  1  0
  1  9  1  0
  1 10  1  0
  1 11  1  0
  8 12  1  0
  8 13  1  0
  8 14  1  0
M  END
>  <anchor_atom_maps>  (53) 
1,2

>  <distance_A>  (53) 
9.604954216059165

>  <Rg_A>  (53) 
3.2967464855430215

>  <energy_kcal_mol>  (53) 
-0.1223737165758861

>  <ensemble>  (53) 
ETKDGv3 unweighted sampling; not a thermodynamic population

$$$$
Rigid alkynyl synthetic attachment-point proxy 53
     RDKit          3D

 14 13  0  0  0  0  0  0  0  0999 V2000
    4.0466   -0.3346   -2.5742 C   0  0  0  0  0  0  0  0  0  1  0  0
    2.8146   -0.2587   -1.7905 C   0  0  0  0  0  0  0  0  0  0  0  0
    1.8031   -0.1965   -1.1470 C   0  0  0  0  0  0  0  0  0  0  0  0
    0.5056   -0.1166   -0.3216 C   0  0  0  0  0  0  0  0  0  0  0  0
   -0.5056   -0.0543    0.3216 C   0  0  0  0  0  0  0  0  0  0  0  0
   -1.8031    0.0256    1.1470 C   0  0  0  0  0  0  0  0  0  0  0  0
   -2.8146    0.0879    1.7905 C   0  0  0  0  0  0  0  0  0  0  0  0
   -4.0466    0.1638    2.5742 C   0  0  0  0  0  0  0  0  0  2  0  0
    4.7182    0.4925   -2.3248 H   0  0  0  0  0  0  0  0  0  0  0  0
    3.8302   -0.2847   -3.6455 H   0  0  0  0  0  0  0  0  0  0  0  0
    4.5756   -1.2721   -2.3781 H   0  0  0  0  0  0  0  0  0  0  0  0
   -4.0518    1.0572    3.2058 H   0  0  0  0  0  0  0  0  0  0  0  0
   -4.1498   -0.7112    3.2230 H   0  0  0  0  0  0  0  0  0  0  0  0
   -4.9224    0.2059    1.9196 H   0  0  0  0  0  0  0  0  0  0  0  0
  1  2  1  0
  2  3  3  0
  3  4  1  0
  4  5  3  0
  5  6  1  0
  6  7  3  0
  7  8  1  0
  1  9  1  0
  1 10  1  0
  1 11  1  0
  8 12  1  0
  8 13  1  0
  8 14  1  0
M  END
>  <anchor_atom_maps>  (54) 
1,2

>  <distance_A>  (54) 
9.604953972905035

>  <Rg_A>  (54) 
3.2967463867398936

>  <energy_kcal_mol>  (54) 
-0.1223737205730913

>  <ensemble>  (54) 
ETKDGv3 unweighted sampling; not a thermodynamic population

$$$$
Rigid alkynyl synthetic attachment-point proxy 54
     RDKit          3D

 14 13  0  0  0  0  0  0  0  0999 V2000
    4.6058    1.3314    0.0999 C   0  0  0  0  0  0  0  0  0  1  0  0
    3.2035    0.9260    0.0148 C   0  0  0  0  0  0  0  0  0  0  0  0
    2.0523    0.5932   -0.0550 C   0  0  0  0  0  0  0  0  0  0  0  0
    0.5754    0.1663   -0.1447 C   0  0  0  0  0  0  0  0  0  0  0  0
   -0.5754   -0.1663   -0.2145 C   0  0  0  0  0  0  0  0  0  0  0  0
   -2.0523   -0.5932   -0.3041 C   0  0  0  0  0  0  0  0  0  0  0  0
   -3.2035   -0.9260   -0.3740 C   0  0  0  0  0  0  0  0  0  0  0  0
   -4.6058   -1.3313   -0.4591 C   0  0  0  0  0  0  0  0  0  2  0  0
    5.2679    0.4985   -0.1552 H   0  0  0  0  0  0  0  0  0  0  0  0
    4.8154    2.1549   -0.5894 H   0  0  0  0  0  0  0  0  0  0  0  0
    4.8540    1.6645    1.1121 H   0  0  0  0  0  0  0  0  0  0  0  0
   -4.6962   -2.3320   -0.8924 H   0  0  0  0  0  0  0  0  0  0  0  0
   -5.0670   -1.3483    0.5330 H   0  0  0  0  0  0  0  0  0  0  0  0
   -5.1742   -0.6376   -1.0858 H   0  0  0  0  0  0  0  0  0  0  0  0
  1  2  1  0
  2  3  3  0
  3  4  1  0
  4  5  3  0
  5  6  1  0
  6  7  3  0
  7  8  1  0
  1  9  1  0
  1 10  1  0
  1 11  1  0
  8 12  1  0
  8 13  1  0
  8 14  1  0
M  END
>  <anchor_atom_maps>  (55) 
1,2

>  <distance_A>  (55) 
9.604953833433672

>  <Rg_A>  (55) 
3.2967463567642947

>  <energy_kcal_mol>  (55) 
-0.12237371779172142

>  <ensemble>  (55) 
ETKDGv3 unweighted sampling; not a thermodynamic population

$$$$
Rigid alkynyl synthetic attachment-point proxy 55
     RDKit          3D

 14 13  0  0  0  0  0  0  0  0999 V2000
    3.7013    1.8176   -2.3070 C   0  0  0  0  0  0  0  0  0  1  0  0
    2.5744    1.2642   -1.5575 C   0  0  0  0  0  0  0  0  0  0  0  0
    1.6492    0.8099   -0.9421 C   0  0  0  0  0  0  0  0  0  0  0  0
    0.4624    0.2271   -0.1528 C   0  0  0  0  0  0  0  0  0  0  0  0
   -0.4624   -0.2271    0.4624 C   0  0  0  0  0  0  0  0  0  0  0  0
   -1.6492   -0.8099    1.2518 C   0  0  0  0  0  0  0  0  0  0  0  0
   -2.5744   -1.2642    1.8671 C   0  0  0  0  0  0  0  0  0  0  0  0
   -3.7013   -1.8176    2.6166 C   0  0  0  0  0  0  0  0  0  2  0  0
    4.4471    1.0447   -2.5157 H   0  0  0  0  0  0  0  0  0  0  0  0
    3.3669    2.2332   -3.2623 H   0  0  0  0  0  0  0  0  0  0  0  0
    4.1899    2.6169   -1.7417 H   0  0  0  0  0  0  0  0  0  0  0  0
   -4.5372   -1.1120    2.6402 H   0  0  0  0  0  0  0  0  0  0  0  0
   -3.4124   -2.0361    3.6491 H   0  0  0  0  0  0  0  0  0  0  0  0
   -4.0543   -2.7468    2.1592 H   0  0  0  0  0  0  0  0  0  0  0  0
  1  2  1  0
  2  3  3  0
  3  4  1  0
  4  5  3  0
  5  6  1  0
  6  7  3  0
  7  8  1  0
  1  9  1  0
  1 10  1  0
  1 11  1  0
  8 12  1  0
  8 13  1  0
  8 14  1  0
M  END
>  <anchor_atom_maps>  (56) 
1,2

>  <distance_A>  (56) 
9.604954156018309

>  <Rg_A>  (56) 
3.2967464445149464

>  <energy_kcal_mol>  (56) 
-0.12237371612238862

>  <ensemble>  (56) 
ETKDGv3 unweighted sampling; not a thermodynamic population

$$$$
Rigid alkynyl synthetic attachment-point proxy 56
     RDKit          3D

 14 13  0  0  0  0  0  0  0  0999 V2000
   -4.7268   -0.7426   -0.3512 C   0  0  0  0  0  0  0  0  0  1  0  0
   -3.2877   -0.5165   -0.2258 C   0  0  0  0  0  0  0  0  0  0  0  0
   -2.1062   -0.3309   -0.1229 C   0  0  0  0  0  0  0  0  0  0  0  0
   -0.5906   -0.0928    0.0092 C   0  0  0  0  0  0  0  0  0  0  0  0
    0.5906    0.0928    0.1121 C   0  0  0  0  0  0  0  0  0  0  0  0
    2.1062    0.3309    0.2441 C   0  0  0  0  0  0  0  0  0  0  0  0
    3.2877    0.5165    0.3470 C   0  0  0  0  0  0  0  0  0  0  0  0
    4.7268    0.7426    0.4724 C   0  0  0  0  0  0  0  0  0  2  0  0
   -4.9881   -1.7625   -0.0533 H   0  0  0  0  0  0  0  0  0  0  0  0
   -5.2865   -0.0496    0.2842 H   0  0  0  0  0  0  0  0  0  0  0  0
   -5.0553   -0.5962   -1.3845 H   0  0  0  0  0  0  0  0  0  0  0  0
    5.0577    1.5320   -0.2091 H   0  0  0  0  0  0  0  0  0  0  0  0
    5.2860   -0.1674    0.2347 H   0  0  0  0  0  0  0  0  0  0  0  0
    4.9862    1.0437    1.4918 H   0  0  0  0  0  0  0  0  0  0  0  0
  1  2  1  0
  2  3  3  0
  3  4  1  0
  4  5  3  0
  5  6  1  0
  6  7  3  0
  7  8  1  0
  1  9  1  0
  1 10  1  0
  1 11  1  0
  8 12  1  0
  8 13  1  0
  8 14  1  0
M  END
>  <anchor_atom_maps>  (57) 
1,2

>  <distance_A>  (57) 
9.604953425499804

>  <Rg_A>  (57) 
3.296746221961422

>  <energy_kcal_mol>  (57) 
-0.12237371801333041

>  <ensemble>  (57) 
ETKDGv3 unweighted sampling; not a thermodynamic population

$$$$
Rigid alkynyl synthetic attachment-point proxy 57
     RDKit          3D

 14 13  0  0  0  0  0  0  0  0999 V2000
   -2.9860   -3.1831   -1.8945 C   0  0  0  0  0  0  0  0  0  1  0  0
   -2.0769   -2.2140   -1.2845 C   0  0  0  0  0  0  0  0  0  0  0  0
   -1.3305   -1.4183   -0.7836 C   0  0  0  0  0  0  0  0  0  0  0  0
   -0.3731   -0.3977   -0.1410 C   0  0  0  0  0  0  0  0  0  0  0  0
    0.3731    0.3977    0.3597 C   0  0  0  0  0  0  0  0  0  0  0  0
    1.3305    1.4183    1.0022 C   0  0  0  0  0  0  0  0  0  0  0  0
    2.0769    2.2140    1.5031 C   0  0  0  0  0  0  0  0  0  0  0  0
    2.9860    3.1831    2.1132 C   0  0  0  0  0  0  0  0  0  2  0  0
   -2.8201   -3.2464   -2.9742 H   0  0  0  0  0  0  0  0  0  0  0  0
   -2.8352   -4.1798   -1.4690 H   0  0  0  0  0  0  0  0  0  0  0  0
   -4.0289   -2.8972   -1.7277 H   0  0  0  0  0  0  0  0  0  0  0  0
    3.9508    3.1903    1.5971 H   0  0  0  0  0  0  0  0  0  0  0  0
    2.5678    4.1931    2.0649 H   0  0  0  0  0  0  0  0  0  0  0  0
    3.1655    2.9400    3.1648 H   0  0  0  0  0  0  0  0  0  0  0  0
  1  2  1  0
  2  3  3  0
  3  4  1  0
  4  5  3  0
  5  6  1  0
  6  7  3  0
  7  8  1  0
  1  9  1  0
  1 10  1  0
  1 11  1  0
  8 12  1  0
  8 13  1  0
  8 14  1  0
M  END
>  <anchor_atom_maps>  (58) 
1,2

>  <distance_A>  (58) 
9.604953934505005

>  <Rg_A>  (58) 
3.296746377246494

>  <energy_kcal_mol>  (58) 
-0.1223737180318434

>  <ensemble>  (58) 
ETKDGv3 unweighted sampling; not a thermodynamic population

$$$$
Rigid alkynyl synthetic attachment-point proxy 58
     RDKit          3D

 14 13  0  0  0  0  0  0  0  0999 V2000
   -4.7752    0.4404   -0.3872 C   0  0  0  0  0  0  0  0  0  1  0  0
   -3.3214    0.3063   -0.3082 C   0  0  0  0  0  0  0  0  0  0  0  0
   -2.1278    0.1963   -0.2433 C   0  0  0  0  0  0  0  0  0  0  0  0
   -0.5966    0.0550   -0.1601 C   0  0  0  0  0  0  0  0  0  0  0  0
    0.5966   -0.0550   -0.0953 C   0  0  0  0  0  0  0  0  0  0  0  0
    2.1278   -0.1963   -0.0121 C   0  0  0  0  0  0  0  0  0  0  0  0
    3.3214   -0.3063    0.0528 C   0  0  0  0  0  0  0  0  0  0  0  0
    4.7752   -0.4404    0.1317 C   0  0  0  0  0  0  0  0  0  2  0  0
   -5.0631    1.4882   -0.5157 H   0  0  0  0  0  0  0  0  0  0  0  0
   -5.1730   -0.1271   -1.2338 H   0  0  0  0  0  0  0  0  0  0  0  0
   -5.2507    0.0673    0.5249 H   0  0  0  0  0  0  0  0  0  0  0  0
    5.2710    0.4263   -0.3156 H   0  0  0  0  0  0  0  0  0  0  0  0
    5.1129   -1.3358   -0.3988 H   0  0  0  0  0  0  0  0  0  0  0  0
    5.1029   -0.5190    1.1727 H   0  0  0  0  0  0  0  0  0  0  0  0
  1  2  1  0
  2  3  3  0
  3  4  1  0
  4  5  3  0
  5  6  1  0
  6  7  3  0
  7  8  1  0
  1  9  1  0
  1 10  1  0
  1 11  1  0
  8 12  1  0
  8 13  1  0
  8 14  1  0
M  END
>  <anchor_atom_maps>  (59) 
1,2

>  <distance_A>  (59) 
9.604953922661316

>  <Rg_A>  (59) 
3.296746364884744

>  <energy_kcal_mol>  (59) 
-0.12237371950774059

>  <ensemble>  (59) 
ETKDGv3 unweighted sampling; not a thermodynamic population

$$$$
Rigid alkynyl synthetic attachment-point proxy 59
     RDKit          3D

 14 13  0  0  0  0  0  0  0  0999 V2000
    4.7702    0.5550    0.0428 C   0  0  0  0  0  0  0  0  0  1  0  0
    3.3179    0.3861    0.0492 C   0  0  0  0  0  0  0  0  0  0  0  0
    2.1255    0.2473    0.0544 C   0  0  0  0  0  0  0  0  0  0  0  0
    0.5960    0.0694    0.0612 C   0  0  0  0  0  0  0  0  0  0  0  0
   -0.5960   -0.0693    0.0664 C   0  0  0  0  0  0  0  0  0  0  0  0
   -2.1255   -0.2473    0.0732 C   0  0  0  0  0  0  0  0  0  0  0  0
   -3.3179   -0.3861    0.0785 C   0  0  0  0  0  0  0  0  0  0  0  0
   -4.7702   -0.5551    0.0849 C   0  0  0  0  0  0  0  0  0  2  0  0
    5.0463    1.5627    0.3677 H   0  0  0  0  0  0  0  0  0  0  0  0
    5.2485   -0.1619    0.7169 H   0  0  0  0  0  0  0  0  0  0  0  0
    5.1759    0.3993   -0.9614 H   0  0  0  0  0  0  0  0  0  0  0  0
   -5.2751    0.4136    0.0213 H   0  0  0  0  0  0  0  0  0  0  0  0
   -5.1005   -1.0502    1.0030 H   0  0  0  0  0  0  0  0  0  0  0  0
   -5.0951   -1.1635   -0.7645 H   0  0  0  0  0  0  0  0  0  0  0  0
  1  2  1  0
  2  3  3  0
  3  4  1  0
  4  5  3  0
  5  6  1  0
  6  7  3  0
  7  8  1  0
  1  9  1  0
  1 10  1  0
  1 11  1  0
  8 12  1  0
  8 13  1  0
  8 14  1  0
M  END
>  <anchor_atom_maps>  (60) 
1,2

>  <distance_A>  (60) 
9.60495376888903

>  <Rg_A>  (60) 
3.296746318894261

>  <energy_kcal_mol>  (60) 
-0.12237371622291335

>  <ensemble>  (60) 
ETKDGv3 unweighted sampling; not a thermodynamic population

$$$$
Rigid alkynyl synthetic attachment-point proxy 60
     RDKit          3D

 14 13  0  0  0  0  0  0  0  0999 V2000
   -4.7949   -0.0173    0.2393 C   0  0  0  0  0  0  0  0  0  1  0  0
   -3.3351   -0.0120    0.1572 C   0  0  0  0  0  0  0  0  0  0  0  0
   -2.1365   -0.0077    0.0898 C   0  0  0  0  0  0  0  0  0  0  0  0
   -0.5991   -0.0021    0.0034 C   0  0  0  0  0  0  0  0  0  0  0  0
    0.5991    0.0022   -0.0640 C   0  0  0  0  0  0  0  0  0  0  0  0
    2.1365    0.0077   -0.1505 C   0  0  0  0  0  0  0  0  0  0  0  0
    3.3351    0.0120   -0.2179 C   0  0  0  0  0  0  0  0  0  0  0  0
    4.7949    0.0172   -0.3001 C   0  0  0  0  0  0  0  0  0  2  0  0
   -5.1816    0.9990    0.3615 H   0  0  0  0  0  0  0  0  0  0  0  0
   -5.1347   -0.6143    1.0909 H   0  0  0  0  0  0  0  0  0  0  0  0
   -5.2343   -0.4407   -0.6689 H   0  0  0  0  0  0  0  0  0  0  0  0
    5.1776    1.0404   -0.3618 H   0  0  0  0  0  0  0  0  0  0  0  0
    5.2361   -0.4575    0.5815 H   0  0  0  0  0  0  0  0  0  0  0  0
    5.1369   -0.5270   -1.1855 H   0  0  0  0  0  0  0  0  0  0  0  0
  1  2  1  0
  2  3  3  0
  3  4  1  0
  4  5  3  0
  5  6  1  0
  6  7  3  0
  7  8  1  0
  1  9  1  0
  1 10  1  0
  1 11  1  0
  8 12  1  0
  8 13  1  0
  8 14  1  0
M  END
>  <anchor_atom_maps>  (61) 
1,2

>  <distance_A>  (61) 
9.604954994571312

>  <Rg_A>  (61) 
3.296746685140993

>  <energy_kcal_mol>  (61) 
-0.12237371227261083

>  <ensemble>  (61) 
ETKDGv3 unweighted sampling; not a thermodynamic population

$$$$
Rigid alkynyl synthetic attachment-point proxy 61
     RDKit          3D

 14 13  0  0  0  0  0  0  0  0999 V2000
    4.7742   -0.3106    0.5103 C   0  0  0  0  0  0  0  0  0  1  0  0
    3.3207   -0.3409    0.3550 C   0  0  0  0  0  0  0  0  0  0  0  0
    2.1273   -0.3658    0.2274 C   0  0  0  0  0  0  0  0  0  0  0  0
    0.5965   -0.3978    0.0638 C   0  0  0  0  0  0  0  0  0  0  0  0
   -0.5965   -0.4227   -0.0638 C   0  0  0  0  0  0  0  0  0  0  0  0
   -2.1273   -0.4546   -0.2274 C   0  0  0  0  0  0  0  0  0  0  0  0
   -3.3207   -0.4795   -0.3550 C   0  0  0  0  0  0  0  0  0  0  0  0
   -4.7742   -0.5099   -0.5103 C   0  0  0  0  0  0  0  0  0  2  0  0
    5.1508    0.7150    0.4509 H   0  0  0  0  0  0  0  0  0  0  0  0
    5.0710   -0.7255    1.4783 H   0  0  0  0  0  0  0  0  0  0  0  0
    5.2619   -0.8971   -0.2741 H   0  0  0  0  0  0  0  0  0  0  0  0
   -5.2697   -0.5271    0.4651 H   0  0  0  0  0  0  0  0  0  0  0  0
   -5.1261    0.3720   -1.0542 H   0  0  0  0  0  0  0  0  0  0  0  0
   -5.0879   -1.3987   -1.0660 H   0  0  0  0  0  0  0  0  0  0  0  0
  1  2  1  0
  2  3  3  0
  3  4  1  0
  4  5  3  0
  5  6  1  0
  6  7  3  0
  7  8  1  0
  1  9  1  0
  1 10  1  0
  1 11  1  0
  8 12  1  0
  8 13  1  0
  8 14  1  0
M  END
>  <anchor_atom_maps>  (62) 
1,2

>  <distance_A>  (62) 
9.604953909010442

>  <Rg_A>  (62) 
3.2967463376830874

>  <energy_kcal_mol>  (62) 
-0.12237371926551695

>  <ensemble>  (62) 
ETKDGv3 unweighted sampling; not a thermodynamic population

$$$$
Rigid alkynyl synthetic attachment-point proxy 62
     RDKit          3D

 14 13  0  0  0  0  0  0  0  0999 V2000
    3.5552    2.4576   -2.1697 C   0  0  0  0  0  0  0  0  0  1  0  0
    2.4728    1.7094   -1.5323 C   0  0  0  0  0  0  0  0  0  0  0  0
    1.5841    1.0951   -1.0089 C   0  0  0  0  0  0  0  0  0  0  0  0
    0.4441    0.3070   -0.3375 C   0  0  0  0  0  0  0  0  0  0  0  0
   -0.4442   -0.3071    0.1857 C   0  0  0  0  0  0  0  0  0  0  0  0
   -1.5842   -1.0951    0.8571 C   0  0  0  0  0  0  0  0  0  0  0  0
   -2.4728   -1.7094    1.3805 C   0  0  0  0  0  0  0  0  0  0  0  0
   -3.5552   -2.4576    2.0181 C   0  0  0  0  0  0  0  0  0  2  0  0
    3.1873    3.0089   -3.0403 H   0  0  0  0  0  0  0  0  0  0  0  0
    4.3491    1.7838   -2.5055 H   0  0  0  0  0  0  0  0  0  0  0  0
    3.9937    3.1779   -1.4725 H   0  0  0  0  0  0  0  0  0  0  0  0
   -3.1791   -3.0427    2.8628 H   0  0  0  0  0  0  0  0  0  0  0  0
   -4.0221   -3.1475    1.3086 H   0  0  0  0  0  0  0  0  0  0  0  0
   -4.3289   -1.7804    2.3921 H   0  0  0  0  0  0  0  0  0  0  0  0
  1  2  1  0
  2  3  3  0
  3  4  1  0
  4  5  3  0
  5  6  1  0
  6  7  3  0
  7  8  1  0
  1  9  1  0
  1 10  1  0
  1 11  1  0
  8 12  1  0
  8 13  1  0
  8 14  1  0
M  END
>  <anchor_atom_maps>  (63) 
1,2

>  <distance_A>  (63) 
9.604952931832436

>  <Rg_A>  (63) 
3.2967460358673613

>  <energy_kcal_mol>  (63) 
-0.12237368044935647

>  <ensemble>  (63) 
ETKDGv3 unweighted sampling; not a thermodynamic population

$$$$
Rigid alkynyl synthetic attachment-point proxy 63
     RDKit          3D

 14 13  0  0  0  0  0  0  0  0999 V2000
    4.7455   -0.1285    0.7055 C   0  0  0  0  0  0  0  0  0  1  0  0
    3.3007   -0.0894    0.4844 C   0  0  0  0  0  0  0  0  0  0  0  0
    2.1145   -0.0573    0.3029 C   0  0  0  0  0  0  0  0  0  0  0  0
    0.5929   -0.0161    0.0700 C   0  0  0  0  0  0  0  0  0  0  0  0
   -0.5929    0.0160   -0.1115 C   0  0  0  0  0  0  0  0  0  0  0  0
   -2.1145    0.0572   -0.3444 C   0  0  0  0  0  0  0  0  0  0  0  0
   -3.3007    0.0894   -0.5259 C   0  0  0  0  0  0  0  0  0  0  0  0
   -4.7455    0.1286   -0.7471 C   0  0  0  0  0  0  0  0  0  2  0  0
    5.0949    0.8029    1.1611 H   0  0  0  0  0  0  0  0  0  0  0  0
    5.0153   -0.9540    1.3711 H   0  0  0  0  0  0  0  0  0  0  0  0
    5.2803   -0.2657   -0.2392 H   0  0  0  0  0  0  0  0  0  0  0  0
   -4.9823   -0.0355   -1.8026 H   0  0  0  0  0  0  0  0  0  0  0  0
   -5.2501   -0.6460   -0.1617 H   0  0  0  0  0  0  0  0  0  0  0  0
   -5.1581    1.0985   -0.4536 H   0  0  0  0  0  0  0  0  0  0  0  0
  1  2  1  0
  2  3  3  0
  3  4  1  0
  4  5  3  0
  5  6  1  0
  6  7  3  0
  7  8  1  0
  1  9  1  0
  1 10  1  0
  1 11  1  0
  8 12  1  0
  8 13  1  0
  8 14  1  0
M  END
>  <anchor_atom_maps>  (64) 
1,2

>  <distance_A>  (64) 
9.604953642370232

>  <Rg_A>  (64) 
3.29674626691343

>  <energy_kcal_mol>  (64) 
-0.12237370430866706

>  <ensemble>  (64) 
ETKDGv3 unweighted sampling; not a thermodynamic population

$$$$
Rigid alkynyl synthetic attachment-point proxy 64
     RDKit          3D

 14 13  0  0  0  0  0  0  0  0999 V2000
   -4.7652   -0.5370   -0.2405 C   0  0  0  0  0  0  0  0  0  1  0  0
   -3.3144   -0.3735   -0.1607 C   0  0  0  0  0  0  0  0  0  0  0  0
   -2.1233   -0.2393   -0.0952 C   0  0  0  0  0  0  0  0  0  0  0  0
   -0.5954   -0.0671   -0.0112 C   0  0  0  0  0  0  0  0  0  0  0  0
    0.5954    0.0671    0.0543 C   0  0  0  0  0  0  0  0  0  0  0  0
    2.1233    0.2393    0.1383 C   0  0  0  0  0  0  0  0  0  0  0  0
    3.3144    0.3735    0.2038 C   0  0  0  0  0  0  0  0  0  0  0  0
    4.7652    0.5370    0.2835 C   0  0  0  0  0  0  0  0  0  2  0  0
   -5.2475    0.4020   -0.5285 H   0  0  0  0  0  0  0  0  0  0  0  0
   -5.0312   -1.2964   -0.9819 H   0  0  0  0  0  0  0  0  0  0  0  0
   -5.1757   -0.8470    0.7252 H   0  0  0  0  0  0  0  0  0  0  0  0
    5.2623   -0.4342    0.3669 H   0  0  0  0  0  0  0  0  0  0  0  0
    5.1499    1.0397   -0.6089 H   0  0  0  0  0  0  0  0  0  0  0  0
    5.0420    1.1359    1.1563 H   0  0  0  0  0  0  0  0  0  0  0  0
  1  2  1  0
  2  3  3  0
  3  4  1  0
  4  5  3  0
  5  6  1  0
  6  7  3  0
  7  8  1  0
  1  9  1  0
  1 10  1  0
  1 11  1  0
  8 12  1  0
  8 13  1  0
  8 14  1  0
M  END
>  <anchor_atom_maps>  (65) 
1,2

>  <distance_A>  (65) 
9.60495397165517

>  <Rg_A>  (65) 
3.296746383698272

>  <energy_kcal_mol>  (65) 
-0.12237371702637938

>  <ensemble>  (65) 
ETKDGv3 unweighted sampling; not a thermodynamic population

$$$$
Rigid alkynyl synthetic attachment-point proxy 65
     RDKit          3D

 14 13  0  0  0  0  0  0  0  0999 V2000
   -4.8023   -0.0306    0.0950 C   0  0  0  0  0  0  0  0  0  1  0  0
   -3.3402   -0.0213    0.0875 C   0  0  0  0  0  0  0  0  0  0  0  0
   -2.1398   -0.0136    0.0813 C   0  0  0  0  0  0  0  0  0  0  0  0
   -0.6000   -0.0038    0.0733 C   0  0  0  0  0  0  0  0  0  0  0  0
    0.6000    0.0038    0.0671 C   0  0  0  0  0  0  0  0  0  0  0  0
    2.1398    0.0136    0.0592 C   0  0  0  0  0  0  0  0  0  0  0  0
    3.3402    0.0213    0.0530 C   0  0  0  0  0  0  0  0  0  0  0  0
    4.8023    0.0306    0.0454 C   0  0  0  0  0  0  0  0  0  2  0  0
   -5.1976    0.9856    0.1856 H   0  0  0  0  0  0  0  0  0  0  0  0
   -5.1835   -0.6191    0.9350 H   0  0  0  0  0  0  0  0  0  0  0  0
   -5.1936   -0.4658   -0.8295 H   0  0  0  0  0  0  0  0  0  0  0  0
    5.1998   -0.8773    0.5091 H   0  0  0  0  0  0  0  0  0  0  0  0
    5.1860    0.0850   -0.9778 H   0  0  0  0  0  0  0  0  0  0  0  0
    5.1890    0.8916    0.5990 H   0  0  0  0  0  0  0  0  0  0  0  0
  1  2  1  0
  2  3  3  0
  3  4  1  0
  4  5  3  0
  5  6  1  0
  6  7  3  0
  7  8  1  0
  1  9  1  0
  1 10  1  0
  1 11  1  0
  8 12  1  0
  8 13  1  0
  8 14  1  0
M  END
>  <anchor_atom_maps>  (66) 
1,2

>  <distance_A>  (66) 
9.604954329194674

>  <Rg_A>  (66) 
3.2967464479358703

>  <energy_kcal_mol>  (66) 
-0.12237371861979549

>  <ensemble>  (66) 
ETKDGv3 unweighted sampling; not a thermodynamic population

$$$$
Rigid alkynyl synthetic attachment-point proxy 66
     RDKit          3D

 14 13  0  0  0  0  0  0  0  0999 V2000
   -4.7989    0.0431   -0.3476 C   0  0  0  0  0  0  0  0  0  1  0  0
   -3.3379    0.0300   -0.2925 C   0  0  0  0  0  0  0  0  0  0  0  0
   -2.1383    0.0192   -0.2473 C   0  0  0  0  0  0  0  0  0  0  0  0
   -0.5996    0.0054   -0.1894 C   0  0  0  0  0  0  0  0  0  0  0  0
    0.5996   -0.0054   -0.1442 C   0  0  0  0  0  0  0  0  0  0  0  0
    2.1383   -0.0192   -0.0863 C   0  0  0  0  0  0  0  0  0  0  0  0
    3.3378   -0.0300   -0.0411 C   0  0  0  0  0  0  0  0  0  0  0  0
    4.7989   -0.0431    0.0139 C   0  0  0  0  0  0  0  0  0  2  0  0
   -5.1851    1.0552   -0.1940 H   0  0  0  0  0  0  0  0  0  0  0  0
   -5.2234   -0.6032    0.4265 H   0  0  0  0  0  0  0  0  0  0  0  0
   -5.1550   -0.3122   -1.3192 H   0  0  0  0  0  0  0  0  0  0  0  0
    5.1573    0.4005    0.9477 H   0  0  0  0  0  0  0  0  0  0  0  0
    5.1815   -1.0665   -0.0444 H   0  0  0  0  0  0  0  0  0  0  0  0
    5.2249    0.5263   -0.8177 H   0  0  0  0  0  0  0  0  0  0  0  0
  1  2  1  0
  2  3  3  0
  3  4  1  0
  4  5  3  0
  5  6  1  0
  6  7  3  0
  7  8  1  0
  1  9  1  0
  1 10  1  0
  1 11  1  0
  8 12  1  0
  8 13  1  0
  8 14  1  0
M  END
>  <anchor_atom_maps>  (67) 
1,2

>  <distance_A>  (67) 
9.604953883476878

>  <Rg_A>  (67) 
3.296746311361586

>  <energy_kcal_mol>  (67) 
-0.12237371246541077

>  <ensemble>  (67) 
ETKDGv3 unweighted sampling; not a thermodynamic population

$$$$
Rigid alkynyl synthetic attachment-point proxy 67
     RDKit          3D

 14 13  0  0  0  0  0  0  0  0999 V2000
    2.1721   -3.3463    2.4491 C   0  0  0  0  0  0  0  0  0  1  0  0
    1.5108   -2.2765    1.7034 C   0  0  0  0  0  0  0  0  0  0  0  0
    0.9678   -1.3982    1.0912 C   0  0  0  0  0  0  0  0  0  0  0  0
    0.2714   -0.2715    0.3059 C   0  0  0  0  0  0  0  0  0  0  0  0
   -0.2714    0.6065   -0.3060 C   0  0  0  0  0  0  0  0  0  0  0  0
   -0.9679    1.7333   -1.0913 C   0  0  0  0  0  0  0  0  0  0  0  0
   -1.5108    2.6117   -1.7035 C   0  0  0  0  0  0  0  0  0  0  0  0
   -2.1721    3.6815   -2.4491 C   0  0  0  0  0  0  0  0  0  2  0  0
    3.0051   -2.9522    3.0390 H   0  0  0  0  0  0  0  0  0  0  0  0
    1.4719   -3.8338    3.1341 H   0  0  0  0  0  0  0  0  0  0  0  0
    2.5676   -4.1074    1.7697 H   0  0  0  0  0  0  0  0  0  0  0  0
   -3.2480    3.4967   -2.5235 H   0  0  0  0  0  0  0  0  0  0  0  0
   -2.0271    4.6472   -1.9555 H   0  0  0  0  0  0  0  0  0  0  0  0
   -1.7695    3.7552   -3.4638 H   0  0  0  0  0  0  0  0  0  0  0  0
  1  2  1  0
  2  3  3  0
  3  4  1  0
  4  5  3  0
  5  6  1  0
  6  7  3  0
  7  8  1  0
  1  9  1  0
  1 10  1  0
  1 11  1  0
  8 12  1  0
  8 13  1  0
  8 14  1  0
M  END
>  <anchor_atom_maps>  (68) 
1,2

>  <distance_A>  (68) 
9.604953821520398

>  <Rg_A>  (68) 
3.2967463543388122

>  <energy_kcal_mol>  (68) 
-0.12237369857642268

>  <ensemble>  (68) 
ETKDGv3 unweighted sampling; not a thermodynamic population

$$$$
Rigid alkynyl synthetic attachment-point proxy 68
     RDKit          3D

 14 13  0  0  0  0  0  0  0  0999 V2000
   -4.2721    1.5055    1.5959 C   0  0  0  0  0  0  0  0  0  1  0  0
   -2.9714    1.0471    1.1100 C   0  0  0  0  0  0  0  0  0  0  0  0
   -1.9036    0.6708    0.7111 C   0  0  0  0  0  0  0  0  0  0  0  0
   -0.5337    0.1881    0.1994 C   0  0  0  0  0  0  0  0  0  0  0  0
    0.5338   -0.1881   -0.1994 C   0  0  0  0  0  0  0  0  0  0  0  0
    1.9036   -0.6708   -0.7111 C   0  0  0  0  0  0  0  0  0  0  0  0
    2.9714   -1.0471   -1.1100 C   0  0  0  0  0  0  0  0  0  0  0  0
    4.2721   -1.5055   -1.5959 C   0  0  0  0  0  0  0  0  0  2  0  0
   -4.1669    2.0396    2.5450 H   0  0  0  0  0  0  0  0  0  0  0  0
   -4.9480    0.6600    1.7555 H   0  0  0  0  0  0  0  0  0  0  0  0
   -4.7401    2.1828    0.8753 H   0  0  0  0  0  0  0  0  0  0  0  0
    4.4462   -2.5490   -1.3169 H   0  0  0  0  0  0  0  0  0  0  0  0
    5.0805   -0.9016   -1.1728 H   0  0  0  0  0  0  0  0  0  0  0  0
    4.3283   -1.4318   -2.6862 H   0  0  0  0  0  0  0  0  0  0  0  0
  1  2  1  0
  2  3  3  0
  3  4  1  0
  4  5  3  0
  5  6  1  0
  6  7  3  0
  7  8  1  0
  1  9  1  0
  1 10  1  0
  1 11  1  0
  8 12  1  0
  8 13  1  0
  8 14  1  0
M  END
>  <anchor_atom_maps>  (69) 
1,2

>  <distance_A>  (69) 
9.604953743596601

>  <Rg_A>  (69) 
3.296746286740141

>  <energy_kcal_mol>  (69) 
-0.12237371607230028

>  <ensemble>  (69) 
ETKDGv3 unweighted sampling; not a thermodynamic population

$$$$
Rigid alkynyl synthetic attachment-point proxy 69
     RDKit          3D

 14 13  0  0  0  0  0  0  0  0999 V2000
    4.4495   -0.0097    1.9291 C   0  0  0  0  0  0  0  0  0  1  0  0
    3.0949   -0.0068    1.3790 C   0  0  0  0  0  0  0  0  0  0  0  0
    1.9826   -0.0043    0.9273 C   0  0  0  0  0  0  0  0  0  0  0  0
    0.5559   -0.0012    0.3478 C   0  0  0  0  0  0  0  0  0  0  0  0
   -0.5559    0.0012   -0.1037 C   0  0  0  0  0  0  0  0  0  0  0  0
   -1.9826    0.0043   -0.6831 C   0  0  0  0  0  0  0  0  0  0  0  0
   -3.0949    0.0068   -1.1348 C   0  0  0  0  0  0  0  0  0  0  0  0
   -4.4495    0.0097   -1.6850 C   0  0  0  0  0  0  0  0  0  2  0  0
    4.7268    0.9867    2.2862 H   0  0  0  0  0  0  0  0  0  0  0  0
    5.1772   -0.3130    1.1704 H   0  0  0  0  0  0  0  0  0  0  0  0
    4.5265   -0.7052    2.7703 H   0  0  0  0  0  0  0  0  0  0  0  0
   -4.6830   -0.9528   -2.1499 H   0  0  0  0  0  0  0  0  0  0  0  0
   -5.1883    0.1952   -0.8995 H   0  0  0  0  0  0  0  0  0  0  0  0
   -4.5594    0.7892   -2.4449 H   0  0  0  0  0  0  0  0  0  0  0  0
  1  2  1  0
  2  3  3  0
  3  4  1  0
  4  5  3  0
  5  6  1  0
  6  7  3  0
  7  8  1  0
  1  9  1  0
  1 10  1  0
  1 11  1  0
  8 12  1  0
  8 13  1  0
  8 14  1  0
M  END
>  <anchor_atom_maps>  (70) 
1,2

>  <distance_A>  (70) 
9.604954658359318

>  <Rg_A>  (70) 
3.296746647731366

>  <energy_kcal_mol>  (70) 
-0.12237370910807882

>  <ensemble>  (70) 
ETKDGv3 unweighted sampling; not a thermodynamic population

$$$$
Rigid alkynyl synthetic attachment-point proxy 70
     RDKit          3D

 14 13  0  0  0  0  0  0  0  0999 V2000
   -4.7791   -0.2260    0.4600 C   0  0  0  0  0  0  0  0  0  1  0  0
   -3.3241   -0.1922    0.3200 C   0  0  0  0  0  0  0  0  0  0  0  0
   -2.1295   -0.1645    0.2050 C   0  0  0  0  0  0  0  0  0  0  0  0
   -0.5971   -0.1288    0.0575 C   0  0  0  0  0  0  0  0  0  0  0  0
    0.5971   -0.1011   -0.0575 C   0  0  0  0  0  0  0  0  0  0  0  0
    2.1295   -0.0655   -0.2050 C   0  0  0  0  0  0  0  0  0  0  0  0
    3.3241   -0.0377   -0.3200 C   0  0  0  0  0  0  0  0  0  0  0  0
    4.7791   -0.0039   -0.4600 C   0  0  0  0  0  0  0  0  0  2  0  0
   -5.0766   -0.8973    1.2713 H   0  0  0  0  0  0  0  0  0  0  0  0
   -5.1720    0.7705    0.6829 H   0  0  0  0  0  0  0  0  0  0  0  0
   -5.2509   -0.5783   -0.4622 H   0  0  0  0  0  0  0  0  0  0  0  0
    5.2556   -0.6698    0.2657 H   0  0  0  0  0  0  0  0  0  0  0  0
    5.0812   -0.3224   -1.4623 H   0  0  0  0  0  0  0  0  0  0  0  0
    5.1626    1.0076   -0.2954 H   0  0  0  0  0  0  0  0  0  0  0  0
  1  2  1  0
  2  3  3  0
  3  4  1  0
  4  5  3  0
  5  6  1  0
  6  7  3  0
  7  8  1  0
  1  9  1  0
  1 10  1  0
  1 11  1  0
  8 12  1  0
  8 13  1  0
  8 14  1  0
M  END
>  <anchor_atom_maps>  (71) 
1,2

>  <distance_A>  (71) 
9.604953875747745

>  <Rg_A>  (71) 
3.296746350415272

>  <energy_kcal_mol>  (71) 
-0.12237372048697993

>  <ensemble>  (71) 
ETKDGv3 unweighted sampling; not a thermodynamic population

$$$$
Rigid alkynyl synthetic attachment-point proxy 71
     RDKit          3D

 14 13  0  0  0  0  0  0  0  0999 V2000
    4.7922   -0.1313   -0.2092 C   0  0  0  0  0  0  0  0  0  1  0  0
    3.3332   -0.0913   -0.1222 C   0  0  0  0  0  0  0  0  0  0  0  0
    2.1353   -0.0585   -0.0507 C   0  0  0  0  0  0  0  0  0  0  0  0
    0.5987   -0.0164    0.0410 C   0  0  0  0  0  0  0  0  0  0  0  0
   -0.5987    0.0164    0.1124 C   0  0  0  0  0  0  0  0  0  0  0  0
   -2.1353    0.0585    0.2040 C   0  0  0  0  0  0  0  0  0  0  0  0
   -3.3332    0.0913    0.2754 C   0  0  0  0  0  0  0  0  0  0  0  0
   -4.7922    0.1313    0.3623 C   0  0  0  0  0  0  0  0  0  2  0  0
    5.1473    0.4527   -1.0636 H   0  0  0  0  0  0  0  0  0  0  0  0
    5.1469   -1.1593   -0.3299 H   0  0  0  0  0  0  0  0  0  0  0  0
    5.2476    0.2807    0.6963 H   0  0  0  0  0  0  0  0  0  0  0  0
   -5.2475   -0.2782   -0.5444 H   0  0  0  0  0  0  0  0  0  0  0  0
   -5.1468    1.1590    0.4858 H   0  0  0  0  0  0  0  0  0  0  0  0
   -5.1475   -0.4550    1.2151 H   0  0  0  0  0  0  0  0  0  0  0  0
  1  2  1  0
  2  3  3  0
  3  4  1  0
  4  5  3  0
  5  6  1  0
  6  7  3  0
  7  8  1  0
  1  9  1  0
  1 10  1  0
  1 11  1  0
  8 12  1  0
  8 13  1  0
  8 14  1  0
M  END
>  <anchor_atom_maps>  (72) 
1,2

>  <distance_A>  (72) 
9.604954301657077

>  <Rg_A>  (72) 
3.2967465061484633

>  <energy_kcal_mol>  (72) 
-0.12237367879255581

>  <ensemble>  (72) 
ETKDGv3 unweighted sampling; not a thermodynamic population

$$$$
Rigid alkynyl synthetic attachment-point proxy 72
     RDKit          3D

 14 13  0  0  0  0  0  0  0  0999 V2000
    4.7964    0.1028    0.2017 C   0  0  0  0  0  0  0  0  0  1  0  0
    3.3361    0.0715    0.1349 C   0  0  0  0  0  0  0  0  0  0  0  0
    2.1372    0.0459    0.0801 C   0  0  0  0  0  0  0  0  0  0  0  0
    0.5993    0.0129    0.0098 C   0  0  0  0  0  0  0  0  0  0  0  0
   -0.5993   -0.0128   -0.0450 C   0  0  0  0  0  0  0  0  0  0  0  0
   -2.1372   -0.0458   -0.1153 C   0  0  0  0  0  0  0  0  0  0  0  0
   -3.3361   -0.0715   -0.1701 C   0  0  0  0  0  0  0  0  0  0  0  0
   -4.7964   -0.1029   -0.2369 C   0  0  0  0  0  0  0  0  0  2  0  0
    5.1424   -0.0463    1.2289 H   0  0  0  0  0  0  0  0  0  0  0  0
    5.2315   -0.6849   -0.4207 H   0  0  0  0  0  0  0  0  0  0  0  0
    5.1816    1.0647   -0.1499 H   0  0  0  0  0  0  0  0  0  0  0  0
   -5.1550   -1.1159   -0.4424 H   0  0  0  0  0  0  0  0  0  0  0  0
   -5.2365    0.2275    0.7088 H   0  0  0  0  0  0  0  0  0  0  0  0
   -5.1640    0.5548   -1.0303 H   0  0  0  0  0  0  0  0  0  0  0  0
  1  2  1  0
  2  3  3  0
  3  4  1  0
  4  5  3  0
  5  6  1  0
  6  7  3  0
  7  8  1  0
  1  9  1  0
  1 10  1  0
  1 11  1  0
  8 12  1  0
  8 13  1  0
  8 14  1  0
M  END
>  <anchor_atom_maps>  (73) 
1,2

>  <distance_A>  (73) 
9.60495440621939

>  <Rg_A>  (73) 
3.2967465170461083

>  <energy_kcal_mol>  (73) 
-0.12237371456040234

>  <ensemble>  (73) 
ETKDGv3 unweighted sampling; not a thermodynamic population

$$$$
Rigid alkynyl synthetic attachment-point proxy 73
     RDKit          3D

 14 13  0  0  0  0  0  0  0  0999 V2000
   -4.7660   -0.5893   -0.2976 C   0  0  0  0  0  0  0  0  0  1  0  0
   -3.3150   -0.4099   -0.2845 C   0  0  0  0  0  0  0  0  0  0  0  0
   -2.1237   -0.2626   -0.2738 C   0  0  0  0  0  0  0  0  0  0  0  0
   -0.5955   -0.0736   -0.2600 C   0  0  0  0  0  0  0  0  0  0  0  0
    0.5955    0.0736   -0.2492 C   0  0  0  0  0  0  0  0  0  0  0  0
    2.1237    0.2626   -0.2354 C   0  0  0  0  0  0  0  0  0  0  0  0
    3.3150    0.4099   -0.2247 C   0  0  0  0  0  0  0  0  0  0  0  0
    4.7660    0.5893   -0.2116 C   0  0  0  0  0  0  0  0  0  2  0  0
   -5.2646    0.2325    0.2251 H   0  0  0  0  0  0  0  0  0  0  0  0
   -5.0470   -1.5250    0.1950 H   0  0  0  0  0  0  0  0  0  0  0  0
   -5.1454   -0.6187   -1.3235 H   0  0  0  0  0  0  0  0  0  0  0  0
    5.1112    0.8972    0.7799 H   0  0  0  0  0  0  0  0  0  0  0  0
    5.2758   -0.3425   -0.4742 H   0  0  0  0  0  0  0  0  0  0  0  0
    5.0699    1.3565   -0.9301 H   0  0  0  0  0  0  0  0  0  0  0  0
  1  2  1  0
  2  3  3  0
  3  4  1  0
  4  5  3  0
  5  6  1  0
  6  7  3  0
  7  8  1  0
  1  9  1  0
  1 10  1  0
  1 11  1  0
  8 12  1  0
  8 13  1  0
  8 14  1  0
M  END
>  <anchor_atom_maps>  (74) 
1,2

>  <distance_A>  (74) 
9.604953928254961

>  <Rg_A>  (74) 
3.296746361863209

>  <energy_kcal_mol>  (74) 
-0.12237371574332422

>  <ensemble>  (74) 
ETKDGv3 unweighted sampling; not a thermodynamic population

$$$$
Rigid alkynyl synthetic attachment-point proxy 74
     RDKit          3D

 14 13  0  0  0  0  0  0  0  0999 V2000
    4.2058    1.0535    2.1449 C   0  0  0  0  0  0  0  0  0  1  0  0
    2.9254    0.7328    1.5162 C   0  0  0  0  0  0  0  0  0  0  0  0
    1.8741    0.4694    1.0000 C   0  0  0  0  0  0  0  0  0  0  0  0
    0.5255    0.1316    0.3378 C   0  0  0  0  0  0  0  0  0  0  0  0
   -0.5255   -0.1316   -0.1783 C   0  0  0  0  0  0  0  0  0  0  0  0
   -1.8741   -0.4694   -0.8404 C   0  0  0  0  0  0  0  0  0  0  0  0
   -2.9254   -0.7327   -1.3566 C   0  0  0  0  0  0  0  0  0  0  0  0
   -4.2058   -1.0535   -1.9854 C   0  0  0  0  0  0  0  0  0  2  0  0
    4.5527    2.0448    1.8381 H   0  0  0  0  0  0  0  0  0  0  0  0
    4.1163    1.0478    3.2354 H   0  0  0  0  0  0  0  0  0  0  0  0
    4.9712    0.3240    1.8635 H   0  0  0  0  0  0  0  0  0  0  0  0
   -4.1373   -1.9851   -2.5551 H   0  0  0  0  0  0  0  0  0  0  0  0
   -4.5128   -0.2582   -2.6712 H   0  0  0  0  0  0  0  0  0  0  0  0
   -4.9902   -1.1734   -1.2320 H   0  0  0  0  0  0  0  0  0  0  0  0
  1  2  1  0
  2  3  3  0
  3  4  1  0
  4  5  3  0
  5  6  1  0
  6  7  3  0
  7  8  1  0
  1  9  1  0
  1 10  1  0
  1 11  1  0
  8 12  1  0
  8 13  1  0
  8 14  1  0
M  END
>  <anchor_atom_maps>  (75) 
1,2

>  <distance_A>  (75) 
9.604953659694074

>  <Rg_A>  (75) 
3.29674630473438

>  <energy_kcal_mol>  (75) 
-0.12237371599531319

>  <ensemble>  (75) 
ETKDGv3 unweighted sampling; not a thermodynamic population

$$$$
Rigid alkynyl synthetic attachment-point proxy 75
     RDKit          3D

 14 13  0  0  0  0  0  0  0  0999 V2000
   -4.7810    0.2954    0.1870 C   0  0  0  0  0  0  0  0  0  1  0  0
   -3.3254    0.2055    0.0822 C   0  0  0  0  0  0  0  0  0  0  0  0
   -2.1303    0.1317   -0.0039 C   0  0  0  0  0  0  0  0  0  0  0  0
   -0.5973    0.0369   -0.1143 C   0  0  0  0  0  0  0  0  0  0  0  0
    0.5973   -0.0369   -0.2003 C   0  0  0  0  0  0  0  0  0  0  0  0
    2.1303   -0.1316   -0.3107 C   0  0  0  0  0  0  0  0  0  0  0  0
    3.3254   -0.2055   -0.3967 C   0  0  0  0  0  0  0  0  0  0  0  0
    4.7810   -0.2955   -0.5015 C   0  0  0  0  0  0  0  0  0  2  0  0
   -5.1655    1.1160   -0.4261 H   0  0  0  0  0  0  0  0  0  0  0  0
   -5.2537   -0.6315   -0.1515 H   0  0  0  0  0  0  0  0  0  0  0  0
   -5.0864    0.4736    1.2225 H   0  0  0  0  0  0  0  0  0  0  0  0
    5.2001    0.6304   -0.9071 H   0  0  0  0  0  0  0  0  0  0  0  0
    5.2319   -0.4706    0.4799 H   0  0  0  0  0  0  0  0  0  0  0  0
    5.0737   -1.1179   -1.1611 H   0  0  0  0  0  0  0  0  0  0  0  0
  1  2  1  0
  2  3  3  0
  3  4  1  0
  4  5  3  0
  5  6  1  0
  6  7  3  0
  7  8  1  0
  1  9  1  0
  1 10  1  0
  1 11  1  0
  8 12  1  0
  8 13  1  0
  8 14  1  0
M  END
>  <anchor_atom_maps>  (76) 
1,2

>  <distance_A>  (76) 
9.604953771550395

>  <Rg_A>  (76) 
3.2967463166525217

>  <energy_kcal_mol>  (76) 
-0.12237371199745752

>  <ensemble>  (76) 
ETKDGv3 unweighted sampling; not a thermodynamic population

$$$$
Rigid alkynyl synthetic attachment-point proxy 76
     RDKit          3D

 14 13  0  0  0  0  0  0  0  0999 V2000
   -4.8019    0.0035    0.1740 C   0  0  0  0  0  0  0  0  0  1  0  0
   -3.3399    0.0024    0.1504 C   0  0  0  0  0  0  0  0  0  0  0  0
   -2.1396    0.0016    0.1311 C   0  0  0  0  0  0  0  0  0  0  0  0
   -0.5999    0.0005    0.1062 C   0  0  0  0  0  0  0  0  0  0  0  0
    0.5999   -0.0004    0.0869 C   0  0  0  0  0  0  0  0  0  0  0  0
    2.1396   -0.0015    0.0620 C   0  0  0  0  0  0  0  0  0  0  0  0
    3.3399   -0.0024    0.0426 C   0  0  0  0  0  0  0  0  0  0  0  0
    4.8019   -0.0035    0.0190 C   0  0  0  0  0  0  0  0  0  2  0  0
   -5.1918   -1.0188    0.1779 H   0  0  0  0  0  0  0  0  0  0  0  0
   -5.2050    0.5171   -0.7040 H   0  0  0  0  0  0  0  0  0  0  0  0
   -5.1764    0.5130    1.0669 H   0  0  0  0  0  0  0  0  0  0  0  0
    5.2050    0.5845    0.8490 H   0  0  0  0  0  0  0  0  0  0  0  0
    5.1918   -1.0223    0.1040 H   0  0  0  0  0  0  0  0  0  0  0  0
    5.1764    0.4264   -0.9148 H   0  0  0  0  0  0  0  0  0  0  0  0
  1  2  1  0
  2  3  3  0
  3  4  1  0
  4  5  3  0
  5  6  1  0
  6  7  3  0
  7  8  1  0
  1  9  1  0
  1 10  1  0
  1 11  1  0
  8 12  1  0
  8 13  1  0
  8 14  1  0
M  END
>  <anchor_atom_maps>  (77) 
1,2

>  <distance_A>  (77) 
9.60495444524071

>  <Rg_A>  (77) 
3.2967465215633402

>  <energy_kcal_mol>  (77) 
-0.12237371014182982

>  <ensemble>  (77) 
ETKDGv3 unweighted sampling; not a thermodynamic population

$$$$
Rigid alkynyl synthetic attachment-point proxy 77
     RDKit          3D

 14 13  0  0  0  0  0  0  0  0999 V2000
   -2.2854    2.9883    3.0681 C   0  0  0  0  0  0  0  0  0  1  0  0
   -1.5896    2.0785    2.1593 C   0  0  0  0  0  0  0  0  0  0  0  0
   -1.0183    1.3315    1.4131 C   0  0  0  0  0  0  0  0  0  0  0  0
   -0.2855    0.3733    0.4560 C   0  0  0  0  0  0  0  0  0  0  0  0
    0.2856   -0.3734   -0.2900 C   0  0  0  0  0  0  0  0  0  0  0  0
    1.0184   -1.3316   -1.2471 C   0  0  0  0  0  0  0  0  0  0  0  0
    1.5896   -2.0785   -1.9933 C   0  0  0  0  0  0  0  0  0  0  0  0
    2.2854   -2.9883   -2.9022 C   0  0  0  0  0  0  0  0  0  2  0  0
   -3.0013    2.4439    3.6913 H   0  0  0  0  0  0  0  0  0  0  0  0
   -2.8342    3.7523    2.5093 H   0  0  0  0  0  0  0  0  0  0  0  0
   -1.5765    3.4953    3.7295 H   0  0  0  0  0  0  0  0  0  0  0  0
    3.0745   -2.4638   -3.4493 H   0  0  0  0  0  0  0  0  0  0  0  0
    1.5915   -3.4146   -3.6329 H   0  0  0  0  0  0  0  0  0  0  0  0
    2.7459   -3.8132   -2.3502 H   0  0  0  0  0  0  0  0  0  0  0  0
  1  2  1  0
  2  3  3  0
  3  4  1  0
  4  5  3  0
  5  6  1  0
  6  7  3  0
  7  8  1  0
  1  9  1  0
  1 10  1  0
  1 11  1  0
  8 12  1  0
  8 13  1  0
  8 14  1  0
M  END
>  <anchor_atom_maps>  (78) 
1,2

>  <distance_A>  (78) 
9.604952971832981

>  <Rg_A>  (78) 
3.2967461274308567

>  <energy_kcal_mol>  (78) 
-0.12237370642422624

>  <ensemble>  (78) 
ETKDGv3 unweighted sampling; not a thermodynamic population

$$$$
Rigid alkynyl synthetic attachment-point proxy 78
     RDKit          3D

 14 13  0  0  0  0  0  0  0  0999 V2000
    4.7983    0.1920   -0.2107 C   0  0  0  0  0  0  0  0  0  1  0  0
    3.3374    0.1336   -0.1935 C   0  0  0  0  0  0  0  0  0  0  0  0
    2.1380    0.0856   -0.1793 C   0  0  0  0  0  0  0  0  0  0  0  0
    0.5995    0.0240   -0.1611 C   0  0  0  0  0  0  0  0  0  0  0  0
   -0.5995   -0.0240   -0.1470 C   0  0  0  0  0  0  0  0  0  0  0  0
   -2.1380   -0.0856   -0.1288 C   0  0  0  0  0  0  0  0  0  0  0  0
   -3.3374   -0.1336   -0.1146 C   0  0  0  0  0  0  0  0  0  0  0  0
   -4.7983   -0.1920   -0.0974 C   0  0  0  0  0  0  0  0  0  2  0  0
    5.2295   -0.7234    0.2054 H   0  0  0  0  0  0  0  0  0  0  0  0
    5.1712    0.3087   -1.2328 H   0  0  0  0  0  0  0  0  0  0  0  0
    5.1611    1.0376    0.3814 H   0  0  0  0  0  0  0  0  0  0  0  0
   -5.2179    0.6975    0.3820 H   0  0  0  0  0  0  0  0  0  0  0  0
   -5.1976   -0.2496   -1.1145 H   0  0  0  0  0  0  0  0  0  0  0  0
   -5.1462   -1.0707    0.4540 H   0  0  0  0  0  0  0  0  0  0  0  0
  1  2  1  0
  2  3  3  0
  3  4  1  0
  4  5  3  0
  5  6  1  0
  6  7  3  0
  7  8  1  0
  1  9  1  0
  1 10  1  0
  1 11  1  0
  8 12  1  0
  8 13  1  0
  8 14  1  0
M  END
>  <anchor_atom_maps>  (79) 
1,2

>  <distance_A>  (79) 
9.604954312198434

>  <Rg_A>  (79) 
3.2967464911768567

>  <energy_kcal_mol>  (79) 
-0.12237372039142266

>  <ensemble>  (79) 
ETKDGv3 unweighted sampling; not a thermodynamic population

$$$$
Rigid alkynyl synthetic attachment-point proxy 79
     RDKit          3D

 14 13  0  0  0  0  0  0  0  0999 V2000
   -4.7828    0.3769    0.2716 C   0  0  0  0  0  0  0  0  0  1  0  0
   -3.3267    0.2621    0.2059 C   0  0  0  0  0  0  0  0  0  0  0  0
   -2.1311    0.1679    0.1519 C   0  0  0  0  0  0  0  0  0  0  0  0
   -0.5976    0.0471    0.0827 C   0  0  0  0  0  0  0  0  0  0  0  0
    0.5976   -0.0471    0.0288 C   0  0  0  0  0  0  0  0  0  0  0  0
    2.1311   -0.1679   -0.0404 C   0  0  0  0  0  0  0  0  0  0  0  0
    3.3267   -0.2621   -0.0943 C   0  0  0  0  0  0  0  0  0  0  0  0
    4.7828   -0.3769   -0.1601 C   0  0  0  0  0  0  0  0  0  2  0  0
   -5.1440    0.1737    1.2842 H   0  0  0  0  0  0  0  0  0  0  0  0
   -5.2605   -0.3350   -0.4083 H   0  0  0  0  0  0  0  0  0  0  0  0
   -5.1070    1.3836   -0.0088 H   0  0  0  0  0  0  0  0  0  0  0  0
    5.1003   -0.7476   -1.1393 H   0  0  0  0  0  0  0  0  0  0  0  0
    5.1535   -1.0696    0.6015 H   0  0  0  0  0  0  0  0  0  0  0  0
    5.2577    0.5949    0.0051 H   0  0  0  0  0  0  0  0  0  0  0  0
  1  2  1  0
  2  3  3  0
  3  4  1  0
  4  5  3  0
  5  6  1  0
  6  7  3  0
  7  8  1  0
  1  9  1  0
  1 10  1  0
  1 11  1  0
  8 12  1  0
  8 13  1  0
  8 14  1  0
M  END
>  <anchor_atom_maps>  (80) 
1,2

>  <distance_A>  (80) 
9.60495379305603

>  <Rg_A>  (80) 
3.2967463421411054

>  <energy_kcal_mol>  (80) 
-0.12237371702557619

>  <ensemble>  (80) 
ETKDGv3 unweighted sampling; not a thermodynamic population

$$$$
Rigid alkynyl synthetic attachment-point proxy 80
     RDKit          3D

 14 13  0  0  0  0  0  0  0  0999 V2000
   -4.4481    1.7675   -0.4497 C   0  0  0  0  0  0  0  0  0  1  0  0
   -3.0939    1.2293   -0.3300 C   0  0  0  0  0  0  0  0  0  0  0  0
   -1.9820    0.7875   -0.2318 C   0  0  0  0  0  0  0  0  0  0  0  0
   -0.5558    0.2208   -0.1058 C   0  0  0  0  0  0  0  0  0  0  0  0
    0.5557   -0.2208   -0.0076 C   0  0  0  0  0  0  0  0  0  0  0  0
    1.9820   -0.7876    0.1184 C   0  0  0  0  0  0  0  0  0  0  0  0
    3.0939   -1.2293    0.2167 C   0  0  0  0  0  0  0  0  0  0  0  0
    4.4481   -1.7674    0.3363 C   0  0  0  0  0  0  0  0  0  2  0  0
   -4.9076    1.8880    0.5360 H   0  0  0  0  0  0  0  0  0  0  0  0
   -5.0819    1.0989   -1.0400 H   0  0  0  0  0  0  0  0  0  0  0  0
   -4.4365    2.7452   -0.9406 H   0  0  0  0  0  0  0  0  0  0  0  0
    5.1772   -0.9617    0.4642 H   0  0  0  0  0  0  0  0  0  0  0  0
    4.5265   -2.4361    1.1988 H   0  0  0  0  0  0  0  0  0  0  0  0
    4.7222   -2.3343   -0.5585 H   0  0  0  0  0  0  0  0  0  0  0  0
  1  2  1  0
  2  3  3  0
  3  4  1  0
  4  5  3  0
  5  6  1  0
  6  7  3  0
  7  8  1  0
  1  9  1  0
  1 10  1  0
  1 11  1  0
  8 12  1  0
  8 13  1  0
  8 14  1  0
M  END
>  <anchor_atom_maps>  (81) 
1,2

>  <distance_A>  (81) 
9.604953884698643

>  <Rg_A>  (81) 
3.2967463446483274

>  <energy_kcal_mol>  (81) 
-0.12237371611919662

>  <ensemble>  (81) 
ETKDGv3 unweighted sampling; not a thermodynamic population

$$$$
Rigid alkynyl synthetic attachment-point proxy 81
     RDKit          3D

 14 13  0  0  0  0  0  0  0  0999 V2000
   -4.7940    0.2216   -0.1519 C   0  0  0  0  0  0  0  0  0  1  0  0
   -3.3344    0.1541   -0.0970 C   0  0  0  0  0  0  0  0  0  0  0  0
   -2.1361    0.0987   -0.0518 C   0  0  0  0  0  0  0  0  0  0  0  0
   -0.5990    0.0277    0.0060 C   0  0  0  0  0  0  0  0  0  0  0  0
    0.5990   -0.0277    0.0511 C   0  0  0  0  0  0  0  0  0  0  0  0
    2.1361   -0.0987    0.1090 C   0  0  0  0  0  0  0  0  0  0  0  0
    3.3344   -0.1541    0.1541 C   0  0  0  0  0  0  0  0  0  0  0  0
    4.7940   -0.2216    0.2091 C   0  0  0  0  0  0  0  0  0  2  0  0
   -5.1246    0.7947   -1.0234 H   0  0  0  0  0  0  0  0  0  0  0  0
   -5.2277   -0.7806   -0.2204 H   0  0  0  0  0  0  0  0  0  0  0  0
   -5.1954    0.7046    0.7440 H   0  0  0  0  0  0  0  0  0  0  0  0
    5.1238   -0.8370    1.0515 H   0  0  0  0  0  0  0  0  0  0  0  0
    5.2256    0.7767    0.3287 H   0  0  0  0  0  0  0  0  0  0  0  0
    5.1983   -0.6583   -0.7091 H   0  0  0  0  0  0  0  0  0  0  0  0
  1  2  1  0
  2  3  3  0
  3  4  1  0
  4  5  3  0
  5  6  1  0
  6  7  3  0
  7  8  1  0
  1  9  1  0
  1 10  1  0
  1 11  1  0
  8 12  1  0
  8 13  1  0
  8 14  1  0
M  END
>  <anchor_atom_maps>  (82) 
1,2

>  <distance_A>  (82) 
9.604953209001346

>  <Rg_A>  (82) 
3.2967462068652185

>  <energy_kcal_mol>  (82) 
-0.12237371518697998

>  <ensemble>  (82) 
ETKDGv3 unweighted sampling; not a thermodynamic population

$$$$
Rigid alkynyl synthetic attachment-point proxy 82
     RDKit          3D

 14 13  0  0  0  0  0  0  0  0999 V2000
   -3.8874    1.7036    1.9764 C   0  0  0  0  0  0  0  0  0  1  0  0
   -2.7039    1.1849    1.2923 C   0  0  0  0  0  0  0  0  0  0  0  0
   -1.7322    0.7591    0.7306 C   0  0  0  0  0  0  0  0  0  0  0  0
   -0.4857    0.2128    0.0100 C   0  0  0  0  0  0  0  0  0  0  0  0
    0.4857   -0.2128   -0.5515 C   0  0  0  0  0  0  0  0  0  0  0  0
    1.7322   -0.7591   -1.2720 C   0  0  0  0  0  0  0  0  0  0  0  0
    2.7039   -1.1849   -1.8337 C   0  0  0  0  0  0  0  0  0  0  0  0
    3.8874   -1.7036   -2.5179 C   0  0  0  0  0  0  0  0  0  2  0  0
   -3.6685    2.6589    2.4628 H   0  0  0  0  0  0  0  0  0  0  0  0
   -4.7072    1.8627    1.2695 H   0  0  0  0  0  0  0  0  0  0  0  0
   -4.2318    1.0034    2.7434 H   0  0  0  0  0  0  0  0  0  0  0  0
    4.1782   -2.6761   -2.1095 H   0  0  0  0  0  0  0  0  0  0  0  0
    3.6951   -1.8286   -3.5877 H   0  0  0  0  0  0  0  0  0  0  0  0
    4.7342   -1.0203   -2.4029 H   0  0  0  0  0  0  0  0  0  0  0  0
  1  2  1  0
  2  3  3  0
  3  4  1  0
  4  5  3  0
  5  6  1  0
  6  7  3  0
  7  8  1  0
  1  9  1  0
  1 10  1  0
  1 11  1  0
  8 12  1  0
  8 13  1  0
  8 14  1  0
M  END
>  <anchor_atom_maps>  (83) 
1,2

>  <distance_A>  (83) 
9.604953841573003

>  <Rg_A>  (83) 
3.296746348868906

>  <energy_kcal_mol>  (83) 
-0.12237372053670165

>  <ensemble>  (83) 
ETKDGv3 unweighted sampling; not a thermodynamic population

$$$$
Rigid alkynyl synthetic attachment-point proxy 83
     RDKit          3D

 14 13  0  0  0  0  0  0  0  0999 V2000
    3.5094   -0.9601   -3.1882 C   0  0  0  0  0  0  0  0  0  1  0  0
    2.4409   -0.6678   -2.2338 C   0  0  0  0  0  0  0  0  0  0  0  0
    1.5637   -0.4278   -1.4503 C   0  0  0  0  0  0  0  0  0  0  0  0
    0.4385   -0.1199   -0.4451 C   0  0  0  0  0  0  0  0  0  0  0  0
   -0.4384    0.1200    0.3382 C   0  0  0  0  0  0  0  0  0  0  0  0
   -1.5637    0.4278    1.3433 C   0  0  0  0  0  0  0  0  0  0  0  0
   -2.4409    0.6678    2.1268 C   0  0  0  0  0  0  0  0  0  0  0  0
   -3.5094    0.9601    3.0812 C   0  0  0  0  0  0  0  0  0  2  0  0
    3.6183   -2.0393   -3.3321 H   0  0  0  0  0  0  0  0  0  0  0  0
    3.2964   -0.5078   -4.1615 H   0  0  0  0  0  0  0  0  0  0  0  0
    4.4667   -0.5667   -2.8334 H   0  0  0  0  0  0  0  0  0  0  0  0
   -3.9163    0.0369    3.5047 H   0  0  0  0  0  0  0  0  0  0  0  0
   -3.1374    1.5764    3.9052 H   0  0  0  0  0  0  0  0  0  0  0  0
   -4.3277    1.5004    2.5959 H   0  0  0  0  0  0  0  0  0  0  0  0
  1  2  1  0
  2  3  3  0
  3  4  1  0
  4  5  3  0
  5  6  1  0
  6  7  3  0
  7  8  1  0
  1  9  1  0
  1 10  1  0
  1 11  1  0
  8 12  1  0
  8 13  1  0
  8 14  1  0
M  END
>  <anchor_atom_maps>  (84) 
1,2

>  <distance_A>  (84) 
9.604953926726761

>  <Rg_A>  (84) 
3.2967463779727253

>  <energy_kcal_mol>  (84) 
-0.12237371840297595

>  <ensemble>  (84) 
ETKDGv3 unweighted sampling; not a thermodynamic population

$$$$
Rigid alkynyl synthetic attachment-point proxy 84
     RDKit          3D

 14 13  0  0  0  0  0  0  0  0999 V2000
   -4.6198   -1.2623    0.3526 C   0  0  0  0  0  0  0  0  0  1  0  0
   -3.2133   -0.8780    0.2438 C   0  0  0  0  0  0  0  0  0  0  0  0
   -2.0585   -0.5625    0.1544 C   0  0  0  0  0  0  0  0  0  0  0  0
   -0.5772   -0.1577    0.0398 C   0  0  0  0  0  0  0  0  0  0  0  0
    0.5772    0.1577   -0.0495 C   0  0  0  0  0  0  0  0  0  0  0  0
    2.0585    0.5625   -0.1641 C   0  0  0  0  0  0  0  0  0  0  0  0
    3.2133    0.8780   -0.2535 C   0  0  0  0  0  0  0  0  0  0  0  0
    4.6198    1.2623   -0.3623 C   0  0  0  0  0  0  0  0  0  2  0  0
   -4.7592   -2.0108    1.1385 H   0  0  0  0  0  0  0  0  0  0  0  0
   -5.2425   -0.3958    0.5950 H   0  0  0  0  0  0  0  0  0  0  0  0
   -4.9812   -1.6872   -0.5886 H   0  0  0  0  0  0  0  0  0  0  0  0
    5.1222    0.6836   -1.1432 H   0  0  0  0  0  0  0  0  0  0  0  0
    4.7153    2.3233   -0.6117 H   0  0  0  0  0  0  0  0  0  0  0  0
    5.1454    1.0869    0.5812 H   0  0  0  0  0  0  0  0  0  0  0  0
  1  2  1  0
  2  3  3  0
  3  4  1  0
  4  5  3  0
  5  6  1  0
  6  7  3  0
  7  8  1  0
  1  9  1  0
  1 10  1  0
  1 11  1  0
  8 12  1  0
  8 13  1  0
  8 14  1  0
M  END
>  <anchor_atom_maps>  (85) 
1,2

>  <distance_A>  (85) 
9.60495391794283

>  <Rg_A>  (85) 
3.2967463614737365

>  <energy_kcal_mol>  (85) 
-0.12237371815989488

>  <ensemble>  (85) 
ETKDGv3 unweighted sampling; not a thermodynamic population

$$$$
Rigid alkynyl synthetic attachment-point proxy 85
     RDKit          3D

 14 13  0  0  0  0  0  0  0  0999 V2000
    4.5529   -1.3096   -0.4575 C   0  0  0  0  0  0  0  0  0  1  0  0
    3.1668   -0.9109   -0.2179 C   0  0  0  0  0  0  0  0  0  0  0  0
    2.0287   -0.5835   -0.0211 C   0  0  0  0  0  0  0  0  0  0  0  0
    0.5689   -0.1636    0.2312 C   0  0  0  0  0  0  0  0  0  0  0  0
   -0.5688    0.1636    0.4279 C   0  0  0  0  0  0  0  0  0  0  0  0
   -2.0287    0.5836    0.6803 C   0  0  0  0  0  0  0  0  0  0  0  0
   -3.1668    0.9109    0.8770 C   0  0  0  0  0  0  0  0  0  0  0  0
   -4.5529    1.3096    1.1166 C   0  0  0  0  0  0  0  0  0  2  0  0
    4.8815   -2.0419    0.2862 H   0  0  0  0  0  0  0  0  0  0  0  0
    4.6627   -1.7599   -1.4486 H   0  0  0  0  0  0  0  0  0  0  0  0
    5.2218   -0.4455   -0.4014 H   0  0  0  0  0  0  0  0  0  0  0  0
   -4.6059    2.0981    1.8733 H   0  0  0  0  0  0  0  0  0  0  0  0
   -5.0132    1.6883    0.1991 H   0  0  0  0  0  0  0  0  0  0  0  0
   -5.1468    0.4608    1.4689 H   0  0  0  0  0  0  0  0  0  0  0  0
  1  2  1  0
  2  3  3  0
  3  4  1  0
  4  5  3  0
  5  6  1  0
  6  7  3  0
  7  8  1  0
  1  9  1  0
  1 10  1  0
  1 11  1  0
  8 12  1  0
  8 13  1  0
  8 14  1  0
M  END
>  <anchor_atom_maps>  (86) 
1,2

>  <distance_A>  (86) 
9.604953340344217

>  <Rg_A>  (86) 
3.2967462774066467

>  <energy_kcal_mol>  (86) 
-0.122373715479954

>  <ensemble>  (86) 
ETKDGv3 unweighted sampling; not a thermodynamic population

$$$$
Rigid alkynyl synthetic attachment-point proxy 86
     RDKit          3D

 14 13  0  0  0  0  0  0  0  0999 V2000
    4.7865    0.1841   -0.3964 C   0  0  0  0  0  0  0  0  0  1  0  0
    3.3292    0.1281   -0.2910 C   0  0  0  0  0  0  0  0  0  0  0  0
    2.1328    0.0821   -0.2045 C   0  0  0  0  0  0  0  0  0  0  0  0
    0.5980    0.0230   -0.0935 C   0  0  0  0  0  0  0  0  0  0  0  0
   -0.5980   -0.0230   -0.0071 C   0  0  0  0  0  0  0  0  0  0  0  0
   -2.1328   -0.0820    0.1039 C   0  0  0  0  0  0  0  0  0  0  0  0
   -3.3292   -0.1280    0.1904 C   0  0  0  0  0  0  0  0  0  0  0  0
   -4.7865   -0.1841    0.2957 C   0  0  0  0  0  0  0  0  0  2  0  0
    5.2334   -0.7780   -0.1282 H   0  0  0  0  0  0  0  0  0  0  0  0
    5.1961    0.9468    0.2727 H   0  0  0  0  0  0  0  0  0  0  0  0
    5.0938    0.4281   -1.4177 H   0  0  0  0  0  0  0  0  0  0  0  0
   -5.0944   -0.9126    1.0518 H   0  0  0  0  0  0  0  0  0  0  0  0
   -5.2348   -0.4756   -0.6588 H   0  0  0  0  0  0  0  0  0  0  0  0
   -5.1941    0.7911    0.5784 H   0  0  0  0  0  0  0  0  0  0  0  0
  1  2  1  0
  2  3  3  0
  3  4  1  0
  4  5  3  0
  5  6  1  0
  6  7  3  0
  7  8  1  0
  1  9  1  0
  1 10  1  0
  1 11  1  0
  8 12  1  0
  8 13  1  0
  8 14  1  0
M  END
>  <anchor_atom_maps>  (87) 
1,2

>  <distance_A>  (87) 
9.604953856729129

>  <Rg_A>  (87) 
3.2967463241332475

>  <energy_kcal_mol>  (87) 
-0.12237371286993404

>  <ensemble>  (87) 
ETKDGv3 unweighted sampling; not a thermodynamic population

$$$$
Rigid alkynyl synthetic attachment-point proxy 87
     RDKit          3D

 14 13  0  0  0  0  0  0  0  0999 V2000
    4.7609    0.3518   -0.6680 C   0  0  0  0  0  0  0  0  0  1  0  0
    3.3114    0.2447   -0.5087 C   0  0  0  0  0  0  0  0  0  0  0  0
    2.1214    0.1568   -0.3778 C   0  0  0  0  0  0  0  0  0  0  0  0
    0.5948    0.0440   -0.2100 C   0  0  0  0  0  0  0  0  0  0  0  0
   -0.5948   -0.0439   -0.0791 C   0  0  0  0  0  0  0  0  0  0  0  0
   -2.1214   -0.1567    0.0887 C   0  0  0  0  0  0  0  0  0  0  0  0
   -3.3114   -0.2447    0.2196 C   0  0  0  0  0  0  0  0  0  0  0  0
   -4.7609   -0.3519    0.3791 C   0  0  0  0  0  0  0  0  0  2  0  0
    5.1456   -0.4636   -1.2879 H   0  0  0  0  0  0  0  0  0  0  0  0
    5.2636    0.3064    0.3027 H   0  0  0  0  0  0  0  0  0  0  0  0
    5.0311    1.2982   -1.1461 H   0  0  0  0  0  0  0  0  0  0  0  0
   -5.2805    0.2612   -0.3634 H   0  0  0  0  0  0  0  0  0  0  0  0
   -5.0691   -0.0146    1.3733 H   0  0  0  0  0  0  0  0  0  0  0  0
   -5.0907   -1.3877    0.2547 H   0  0  0  0  0  0  0  0  0  0  0  0
  1  2  1  0
  2  3  3  0
  3  4  1  0
  4  5  3  0
  5  6  1  0
  6  7  3  0
  7  8  1  0
  1  9  1  0
  1 10  1  0
  1 11  1  0
  8 12  1  0
  8 13  1  0
  8 14  1  0
M  END
>  <anchor_atom_maps>  (88) 
1,2

>  <distance_A>  (88) 
9.60495430721755

>  <Rg_A>  (88) 
3.2967464772206747

>  <energy_kcal_mol>  (88) 
-0.12237369555160095

>  <ensemble>  (88) 
ETKDGv3 unweighted sampling; not a thermodynamic population

$$$$
Rigid alkynyl synthetic attachment-point proxy 88
     RDKit          3D

 14 13  0  0  0  0  0  0  0  0999 V2000
   -4.7270   -0.2738    0.8480 C   0  0  0  0  0  0  0  0  0  1  0  0
   -3.2879   -0.2774    0.5898 C   0  0  0  0  0  0  0  0  0  0  0  0
   -2.1063   -0.2804    0.3778 C   0  0  0  0  0  0  0  0  0  0  0  0
   -0.5906   -0.2841    0.1059 C   0  0  0  0  0  0  0  0  0  0  0  0
    0.5906   -0.2871   -0.1060 C   0  0  0  0  0  0  0  0  0  0  0  0
    2.1063   -0.2909   -0.3779 C   0  0  0  0  0  0  0  0  0  0  0  0
    3.2879   -0.2938   -0.5898 C   0  0  0  0  0  0  0  0  0  0  0  0
    4.7270   -0.2974   -0.8480 C   0  0  0  0  0  0  0  0  0  2  0  0
   -5.0395   -1.2082    1.3237 H   0  0  0  0  0  0  0  0  0  0  0  0
   -5.0016    0.5526    1.5104 H   0  0  0  0  0  0  0  0  0  0  0  0
   -5.2894   -0.1629   -0.0840 H   0  0  0  0  0  0  0  0  0  0  0  0
    5.2680   -0.7826   -0.0300 H   0  0  0  0  0  0  0  0  0  0  0  0
    4.9553   -0.8362   -1.7725 H   0  0  0  0  0  0  0  0  0  0  0  0
    5.1072    0.7237   -0.9476 H   0  0  0  0  0  0  0  0  0  0  0  0
  1  2  1  0
  2  3  3  0
  3  4  1  0
  4  5  3  0
  5  6  1  0
  6  7  3  0
  7  8  1  0
  1  9  1  0
  1 10  1  0
  1 11  1  0
  8 12  1  0
  8 13  1  0
  8 14  1  0
M  END
>  <anchor_atom_maps>  (89) 
1,2

>  <distance_A>  (89) 
9.604953777778517

>  <Rg_A>  (89) 
3.296746323936868

>  <energy_kcal_mol>  (89) 
-0.12237371602438063

>  <ensemble>  (89) 
ETKDGv3 unweighted sampling; not a thermodynamic population

$$$$
Rigid alkynyl synthetic attachment-point proxy 89
     RDKit          3D

 14 13  0  0  0  0  0  0  0  0999 V2000
   -4.7740   -0.4007   -0.3821 C   0  0  0  0  0  0  0  0  0  1  0  0
   -3.3205   -0.2787   -0.2801 C   0  0  0  0  0  0  0  0  0  0  0  0
   -2.1272   -0.1785   -0.1964 C   0  0  0  0  0  0  0  0  0  0  0  0
   -0.5965   -0.0501   -0.0890 C   0  0  0  0  0  0  0  0  0  0  0  0
    0.5965    0.0501   -0.0053 C   0  0  0  0  0  0  0  0  0  0  0  0
    2.1272    0.1785    0.1022 C   0  0  0  0  0  0  0  0  0  0  0  0
    3.3205    0.2787    0.1859 C   0  0  0  0  0  0  0  0  0  0  0  0
    4.7740    0.4007    0.2879 C   0  0  0  0  0  0  0  0  0  2  0  0
   -5.1823   -0.9272    0.4857 H   0  0  0  0  0  0  0  0  0  0  0  0
   -5.0558   -0.9579   -1.2806 H   0  0  0  0  0  0  0  0  0  0  0  0
   -5.2448    0.5857   -0.4330 H   0  0  0  0  0  0  0  0  0  0  0  0
    5.1596   -0.2134    1.1072 H   0  0  0  0  0  0  0  0  0  0  0  0
    5.2579    0.0744   -0.6376 H   0  0  0  0  0  0  0  0  0  0  0  0
    5.0653    1.4385    0.4755 H   0  0  0  0  0  0  0  0  0  0  0  0
  1  2  1  0
  2  3  3  0
  3  4  1  0
  4  5  3  0
  5  6  1  0
  6  7  3  0
  7  8  1  0
  1  9  1  0
  1 10  1  0
  1 11  1  0
  8 12  1  0
  8 13  1  0
  8 14  1  0
M  END
>  <anchor_atom_maps>  (90) 
1,2

>  <distance_A>  (90) 
9.604954043150887

>  <Rg_A>  (90) 
3.2967464010778578

>  <energy_kcal_mol>  (90) 
-0.12237371998850585

>  <ensemble>  (90) 
ETKDGv3 unweighted sampling; not a thermodynamic population

$$$$
Rigid alkynyl synthetic attachment-point proxy 90
     RDKit          3D

 14 13  0  0  0  0  0  0  0  0999 V2000
   -4.7582   -0.1691    0.4871 C   0  0  0  0  0  0  0  0  0  1  0  0
   -3.3095   -0.1177    0.2958 C   0  0  0  0  0  0  0  0  0  0  0  0
   -2.1202   -0.0754    0.1388 C   0  0  0  0  0  0  0  0  0  0  0  0
   -0.5945   -0.0211   -0.0627 C   0  0  0  0  0  0  0  0  0  0  0  0
    0.5945    0.0211   -0.2197 C   0  0  0  0  0  0  0  0  0  0  0  0
    2.1202    0.0754   -0.4213 C   0  0  0  0  0  0  0  0  0  0  0  0
    3.3095    0.1176   -0.5784 C   0  0  0  0  0  0  0  0  0  0  0  0
    4.7582    0.1692   -0.7698 C   0  0  0  0  0  0  0  0  0  2  0  0
   -5.1323   -1.1889    0.3551 H   0  0  0  0  0  0  0  0  0  0  0  0
   -5.2692    0.4758   -0.2340 H   0  0  0  0  0  0  0  0  0  0  0  0
   -5.0301    0.1645    1.4931 H   0  0  0  0  0  0  0  0  0  0  0  0
    5.0053    0.4384   -1.8011 H   0  0  0  0  0  0  0  0  0  0  0  0
    5.2122    0.9120   -0.1070 H   0  0  0  0  0  0  0  0  0  0  0  0
    5.2141   -0.8018   -0.5540 H   0  0  0  0  0  0  0  0  0  0  0  0
  1  2  1  0
  2  3  3  0
  3  4  1  0
  4  5  3  0
  5  6  1  0
  6  7  3  0
  7  8  1  0
  1  9  1  0
  1 10  1  0
  1 11  1  0
  8 12  1  0
  8 13  1  0
  8 14  1  0
M  END
>  <anchor_atom_maps>  (91) 
1,2

>  <distance_A>  (91) 
9.604954008939604

>  <Rg_A>  (91) 
3.2967463894822338

>  <energy_kcal_mol>  (91) 
-0.12237369245462243

>  <ensemble>  (91) 
ETKDGv3 unweighted sampling; not a thermodynamic population

$$$$
Rigid alkynyl synthetic attachment-point proxy 91
     RDKit          3D

 14 13  0  0  0  0  0  0  0  0999 V2000
   -4.6525   -1.0280    0.6364 C   0  0  0  0  0  0  0  0  0  1  0  0
   -3.2360   -0.7150    0.4535 C   0  0  0  0  0  0  0  0  0  0  0  0
   -2.0731   -0.4581    0.3032 C   0  0  0  0  0  0  0  0  0  0  0  0
   -0.5813   -0.1284    0.1106 C   0  0  0  0  0  0  0  0  0  0  0  0
    0.5813    0.1284   -0.0396 C   0  0  0  0  0  0  0  0  0  0  0  0
    2.0731    0.4581   -0.2322 C   0  0  0  0  0  0  0  0  0  0  0  0
    3.2360    0.7150   -0.3824 C   0  0  0  0  0  0  0  0  0  0  0  0
    4.6525    1.0280   -0.5653 C   0  0  0  0  0  0  0  0  0  2  0  0
   -4.7997   -1.6691    1.5108 H   0  0  0  0  0  0  0  0  0  0  0  0
   -5.2372   -0.1149    0.7829 H   0  0  0  0  0  0  0  0  0  0  0  0
   -5.0520   -1.5501   -0.2383 H   0  0  0  0  0  0  0  0  0  0  0  0
    5.2226    0.7953    0.3392 H   0  0  0  0  0  0  0  0  0  0  0  0
    5.0756    0.4488   -1.3915 H   0  0  0  0  0  0  0  0  0  0  0  0
    4.7907    2.0900   -0.7896 H   0  0  0  0  0  0  0  0  0  0  0  0
  1  2  1  0
  2  3  3  0
  3  4  1  0
  4  5  3  0
  5  6  1  0
  6  7  3  0
  7  8  1  0
  1  9  1  0
  1 10  1  0
  1 11  1  0
  8 12  1  0
  8 13  1  0
  8 14  1  0
M  END
>  <anchor_atom_maps>  (92) 
1,2

>  <distance_A>  (92) 
9.604952915201011

>  <Rg_A>  (92) 
3.2967460927496486

>  <energy_kcal_mol>  (92) 
-0.12237370989444667

>  <ensemble>  (92) 
ETKDGv3 unweighted sampling; not a thermodynamic population

$$$$
Rigid alkynyl synthetic attachment-point proxy 92
     RDKit          3D

 14 13  0  0  0  0  0  0  0  0999 V2000
    4.7592   -0.3736   -0.5673 C   0  0  0  0  0  0  0  0  0  1  0  0
    3.3103   -0.2598   -0.4080 C   0  0  0  0  0  0  0  0  0  0  0  0
    2.1206   -0.1665   -0.2771 C   0  0  0  0  0  0  0  0  0  0  0  0
    0.5946   -0.0467   -0.1093 C   0  0  0  0  0  0  0  0  0  0  0  0
   -0.5946    0.0467    0.0215 C   0  0  0  0  0  0  0  0  0  0  0  0
   -2.1206    0.1665    0.1893 C   0  0  0  0  0  0  0  0  0  0  0  0
   -3.3103    0.2598    0.3201 C   0  0  0  0  0  0  0  0  0  0  0  0
   -4.7592    0.3736    0.4794 C   0  0  0  0  0  0  0  0  0  2  0  0
    5.0455   -0.2604   -1.6173 H   0  0  0  0  0  0  0  0  0  0  0  0
    5.2762    0.3985    0.0105 H   0  0  0  0  0  0  0  0  0  0  0  0
    5.1134   -1.3497   -0.2224 H   0  0  0  0  0  0  0  0  0  0  0  0
   -5.1582    1.1756   -0.1490 H   0  0  0  0  0  0  0  0  0  0  0  0
   -5.2564   -0.5589    0.1958 H   0  0  0  0  0  0  0  0  0  0  0  0
   -5.0204    0.5950    1.5186 H   0  0  0  0  0  0  0  0  0  0  0  0
  1  2  1  0
  2  3  3  0
  3  4  1  0
  4  5  3  0
  5  6  1  0
  6  7  3  0
  7  8  1  0
  1  9  1  0
  1 10  1  0
  1 11  1  0
  8 12  1  0
  8 13  1  0
  8 14  1  0
M  END
>  <anchor_atom_maps>  (93) 
1,2

>  <distance_A>  (93) 
9.604954221302803

>  <Rg_A>  (93) 
3.2967464398314124

>  <energy_kcal_mol>  (93) 
-0.12237371765079913

>  <ensemble>  (93) 
ETKDGv3 unweighted sampling; not a thermodynamic population

$$$$
Rigid alkynyl synthetic attachment-point proxy 93
     RDKit          3D

 14 13  0  0  0  0  0  0  0  0999 V2000
    4.7399    0.7463    0.2042 C   0  0  0  0  0  0  0  0  0  1  0  0
    3.2969    0.5191    0.1435 C   0  0  0  0  0  0  0  0  0  0  0  0
    2.1120    0.3325    0.0936 C   0  0  0  0  0  0  0  0  0  0  0  0
    0.5922    0.0932    0.0297 C   0  0  0  0  0  0  0  0  0  0  0  0
   -0.5922   -0.0932   -0.0202 C   0  0  0  0  0  0  0  0  0  0  0  0
   -2.1120   -0.3325   -0.0841 C   0  0  0  0  0  0  0  0  0  0  0  0
   -3.2969   -0.5191   -0.1340 C   0  0  0  0  0  0  0  0  0  0  0  0
   -4.7399   -0.7463   -0.1947 C   0  0  0  0  0  0  0  0  0  2  0  0
    5.2228    0.4333   -0.7265 H   0  0  0  0  0  0  0  0  0  0  0  0
    4.9609    1.8063    0.3612 H   0  0  0  0  0  0  0  0  0  0  0  0
    5.1888    0.1807    1.0262 H   0  0  0  0  0  0  0  0  0  0  0  0
   -5.2838    0.2032   -0.1964 H   0  0  0  0  0  0  0  0  0  0  0  0
   -5.0100   -1.2937   -1.1028 H   0  0  0  0  0  0  0  0  0  0  0  0
   -5.0787   -1.3298    0.6667 H   0  0  0  0  0  0  0  0  0  0  0  0
  1  2  1  0
  2  3  3  0
  3  4  1  0
  4  5  3  0
  5  6  1  0
  6  7  3  0
  7  8  1  0
  1  9  1  0
  1 10  1  0
  1 11  1  0
  8 12  1  0
  8 13  1  0
  8 14  1  0
M  END
>  <anchor_atom_maps>  (94) 
1,2

>  <distance_A>  (94) 
9.60495383283085

>  <Rg_A>  (94) 
3.296746341069165

>  <energy_kcal_mol>  (94) 
-0.12237371985539537

>  <ensemble>  (94) 
ETKDGv3 unweighted sampling; not a thermodynamic population

$$$$
Rigid alkynyl synthetic attachment-point proxy 94
     RDKit          3D

 14 13  0  0  0  0  0  0  0  0999 V2000
   -4.5730   -0.8983   -1.3918 C   0  0  0  0  0  0  0  0  0  1  0  0
   -3.1807   -0.6248   -1.0388 C   0  0  0  0  0  0  0  0  0  0  0  0
   -2.0377   -0.4003   -0.7489 C   0  0  0  0  0  0  0  0  0  0  0  0
   -0.5714   -0.1122   -0.3771 C   0  0  0  0  0  0  0  0  0  0  0  0
    0.5713    0.1122   -0.0874 C   0  0  0  0  0  0  0  0  0  0  0  0
    2.0377    0.4002    0.2844 C   0  0  0  0  0  0  0  0  0  0  0  0
    3.1807    0.6248    0.5742 C   0  0  0  0  0  0  0  0  0  0  0  0
    4.5730    0.8983    0.9272 C   0  0  0  0  0  0  0  0  0  2  0  0
   -5.0377   -0.0207   -1.8513 H   0  0  0  0  0  0  0  0  0  0  0  0
   -4.6388   -1.7280   -2.1020 H   0  0  0  0  0  0  0  0  0  0  0  0
   -5.1546   -1.1645   -0.5041 H   0  0  0  0  0  0  0  0  0  0  0  0
    4.6360    1.6973    1.6720 H   0  0  0  0  0  0  0  0  0  0  0  0
    5.0511    0.0069    1.3446 H   0  0  0  0  0  0  0  0  0  0  0  0
    5.1440    1.2090    0.0471 H   0  0  0  0  0  0  0  0  0  0  0  0
  1  2  1  0
  2  3  3  0
  3  4  1  0
  4  5  3  0
  5  6  1  0
  6  7  3  0
  7  8  1  0
  1  9  1  0
  1 10  1  0
  1 11  1  0
  8 12  1  0
  8 13  1  0
  8 14  1  0
M  END
>  <anchor_atom_maps>  (95) 
1,2

>  <distance_A>  (95) 
9.604953953089945

>  <Rg_A>  (95) 
3.2967464211318336

>  <energy_kcal_mol>  (95) 
-0.12237371117373055

>  <ensemble>  (95) 
ETKDGv3 unweighted sampling; not a thermodynamic population

$$$$
Rigid alkynyl synthetic attachment-point proxy 95
     RDKit          3D

 14 13  0  0  0  0  0  0  0  0999 V2000
    4.7181   -0.1888   -0.7841 C   0  0  0  0  0  0  0  0  0  1  0  0
    3.2817   -0.0567   -0.5454 C   0  0  0  0  0  0  0  0  0  0  0  0
    2.1023    0.0517   -0.3494 C   0  0  0  0  0  0  0  0  0  0  0  0
    0.5895    0.1908   -0.0980 C   0  0  0  0  0  0  0  0  0  0  0  0
   -0.5895    0.2992    0.0980 C   0  0  0  0  0  0  0  0  0  0  0  0
   -2.1023    0.4382    0.3494 C   0  0  0  0  0  0  0  0  0  0  0  0
   -3.2817    0.5467    0.5454 C   0  0  0  0  0  0  0  0  0  0  0  0
   -4.7181    0.6787    0.7841 C   0  0  0  0  0  0  0  0  0  2  0  0
    4.9122   -0.5625   -1.7940 H   0  0  0  0  0  0  0  0  0  0  0  0
    5.1686   -0.8865   -0.0718 H   0  0  0  0  0  0  0  0  0  0  0  0
    5.2209    0.7771   -0.6773 H   0  0  0  0  0  0  0  0  0  0  0  0
   -5.2821    0.5273   -0.1412 H   0  0  0  0  0  0  0  0  0  0  0  0
   -5.0608   -0.0598    1.5151 H   0  0  0  0  0  0  0  0  0  0  0  0
   -4.9589    1.6742    1.1692 H   0  0  0  0  0  0  0  0  0  0  0  0
  1  2  1  0
  2  3  3  0
  3  4  1  0
  4  5  3  0
  5  6  1  0
  6  7  3  0
  7  8  1  0
  1  9  1  0
  1 10  1  0
  1 11  1  0
  8 12  1  0
  8 13  1  0
  8 14  1  0
M  END
>  <anchor_atom_maps>  (96) 
1,2

>  <distance_A>  (96) 
9.604954106988032

>  <Rg_A>  (96) 
3.2967464259185935

>  <energy_kcal_mol>  (96) 
-0.1223737202251354

>  <ensemble>  (96) 
ETKDGv3 unweighted sampling; not a thermodynamic population

$$$$
Rigid alkynyl synthetic attachment-point proxy 96
     RDKit          3D

 14 13  0  0  0  0  0  0  0  0999 V2000
   -4.7991   -0.1787    0.0877 C   0  0  0  0  0  0  0  0  0  1  0  0
   -3.3380   -0.1243    0.0946 C   0  0  0  0  0  0  0  0  0  0  0  0
   -2.1384   -0.0797    0.1003 C   0  0  0  0  0  0  0  0  0  0  0  0
   -0.5996   -0.0224    0.1076 C   0  0  0  0  0  0  0  0  0  0  0  0
    0.5996    0.0223    0.1133 C   0  0  0  0  0  0  0  0  0  0  0  0
    2.1384    0.0796    0.1206 C   0  0  0  0  0  0  0  0  0  0  0  0
    3.3380    0.1243    0.1263 C   0  0  0  0  0  0  0  0  0  0  0  0
    4.7991    0.1788    0.1333 C   0  0  0  0  0  0  0  0  0  2  0  0
   -5.1814   -0.2432   -0.9355 H   0  0  0  0  0  0  0  0  0  0  0  0
   -5.1588   -1.0521    0.6399 H   0  0  0  0  0  0  0  0  0  0  0  0
   -5.2242    0.7157    0.5530 H   0  0  0  0  0  0  0  0  0  0  0  0
    5.1816    0.4929   -0.8425 H   0  0  0  0  0  0  0  0  0  0  0  0
    5.2241   -0.8026    0.3644 H   0  0  0  0  0  0  0  0  0  0  0  0
    5.1586    0.8895    0.8835 H   0  0  0  0  0  0  0  0  0  0  0  0
  1  2  1  0
  2  3  3  0
  3  4  1  0
  4  5  3  0
  5  6  1  0
  6  7  3  0
  7  8  1  0
  1  9  1  0
  1 10  1  0
  1 11  1  0
  8 12  1  0
  8 13  1  0
  8 14  1  0
M  END
>  <anchor_atom_maps>  (97) 
1,2

>  <distance_A>  (97) 
9.60495347902352

>  <Rg_A>  (97) 
3.296746267716205

>  <energy_kcal_mol>  (97) 
-0.1223737102918623

>  <ensemble>  (97) 
ETKDGv3 unweighted sampling; not a thermodynamic population

$$$$
Rigid alkynyl synthetic attachment-point proxy 97
     RDKit          3D

 14 13  0  0  0  0  0  0  0  0999 V2000
    4.6184   -0.4237   -1.3331 C   0  0  0  0  0  0  0  0  0  1  0  0
    3.2123   -0.2947   -0.9535 C   0  0  0  0  0  0  0  0  0  0  0  0
    2.0579   -0.1888   -0.6418 C   0  0  0  0  0  0  0  0  0  0  0  0
    0.5770   -0.0530   -0.2420 C   0  0  0  0  0  0  0  0  0  0  0  0
   -0.5770    0.0529    0.0695 C   0  0  0  0  0  0  0  0  0  0  0  0
   -2.0579    0.1888    0.4693 C   0  0  0  0  0  0  0  0  0  0  0  0
   -3.2123    0.2947    0.7810 C   0  0  0  0  0  0  0  0  0  0  0  0
   -4.6184    0.4237    1.1606 C   0  0  0  0  0  0  0  0  0  2  0  0
    4.9022   -1.4765   -1.4234 H   0  0  0  0  0  0  0  0  0  0  0  0
    4.8082    0.0626   -2.2947 H   0  0  0  0  0  0  0  0  0  0  0  0
    5.2679    0.0398   -0.5844 H   0  0  0  0  0  0  0  0  0  0  0  0
   -4.7451    0.2838    2.2384 H   0  0  0  0  0  0  0  0  0  0  0  0
   -5.0028    1.4143    0.8995 H   0  0  0  0  0  0  0  0  0  0  0  0
   -5.2304   -0.3239    0.6471 H   0  0  0  0  0  0  0  0  0  0  0  0
  1  2  1  0
  2  3  3  0
  3  4  1  0
  4  5  3  0
  5  6  1  0
  6  7  3  0
  7  8  1  0
  1  9  1  0
  1 10  1  0
  1 11  1  0
  8 12  1  0
  8 13  1  0
  8 14  1  0
M  END
>  <anchor_atom_maps>  (98) 
1,2

>  <distance_A>  (98) 
9.60495411459206

>  <Rg_A>  (98) 
3.2967463987714813

>  <energy_kcal_mol>  (98) 
-0.12237371598903801

>  <ensemble>  (98) 
ETKDGv3 unweighted sampling; not a thermodynamic population

$$$$
Rigid alkynyl synthetic attachment-point proxy 98
     RDKit          3D

 14 13  0  0  0  0  0  0  0  0999 V2000
   -4.4978    1.5180   -0.6220 C   0  0  0  0  0  0  0  0  0  1  0  0
   -3.1285    1.0558   -0.4006 C   0  0  0  0  0  0  0  0  0  0  0  0
   -2.0042    0.6764   -0.2188 C   0  0  0  0  0  0  0  0  0  0  0  0
   -0.5620    0.1896    0.0144 C   0  0  0  0  0  0  0  0  0  0  0  0
    0.5620   -0.1897    0.1961 C   0  0  0  0  0  0  0  0  0  0  0  0
    2.0042   -0.6764    0.4294 C   0  0  0  0  0  0  0  0  0  0  0  0
    3.1285   -1.0558    0.6112 C   0  0  0  0  0  0  0  0  0  0  0  0
    4.4978   -1.5180    0.8326 C   0  0  0  0  0  0  0  0  0  2  0  0
   -4.6300    2.5375   -0.2473 H   0  0  0  0  0  0  0  0  0  0  0  0
   -4.7424    1.5140   -1.6884 H   0  0  0  0  0  0  0  0  0  0  0  0
   -5.2149    0.8716   -0.1070 H   0  0  0  0  0  0  0  0  0  0  0  0
    4.7903   -1.3820    1.8781 H   0  0  0  0  0  0  0  0  0  0  0  0
    4.5945   -2.5802    0.5886 H   0  0  0  0  0  0  0  0  0  0  0  0
    5.2025   -0.9608    0.2079 H   0  0  0  0  0  0  0  0  0  0  0  0
  1  2  1  0
  2  3  3  0
  3  4  1  0
  4  5  3  0
  5  6  1  0
  6  7  3  0
  7  8  1  0
  1  9  1  0
  1 10  1  0
  1 11  1  0
  8 12  1  0
  8 13  1  0
  8 14  1  0
M  END
>  <anchor_atom_maps>  (99) 
1,2

>  <distance_A>  (99) 
9.604953919358765

>  <Rg_A>  (99) 
3.2967463725509116

>  <energy_kcal_mol>  (99) 
-0.12237371237634097

>  <ensemble>  (99) 
ETKDGv3 unweighted sampling; not a thermodynamic population

$$$$
Rigid alkynyl synthetic attachment-point proxy 99
     RDKit          3D

 14 13  0  0  0  0  0  0  0  0999 V2000
   -4.7598   -0.6153   -0.1611 C   0  0  0  0  0  0  0  0  0  1  0  0
   -3.3107   -0.4280   -0.1087 C   0  0  0  0  0  0  0  0  0  0  0  0
   -2.1209   -0.2742   -0.0656 C   0  0  0  0  0  0  0  0  0  0  0  0
   -0.5947   -0.0769   -0.0104 C   0  0  0  0  0  0  0  0  0  0  0  0
    0.5947    0.0769    0.0326 C   0  0  0  0  0  0  0  0  0  0  0  0
    2.1209    0.2742    0.0879 C   0  0  0  0  0  0  0  0  0  0  0  0
    3.3107    0.4280    0.1309 C   0  0  0  0  0  0  0  0  0  0  0  0
    4.7598    0.6153    0.1834 C   0  0  0  0  0  0  0  0  0  2  0  0
   -5.0157   -1.5149   -0.7290 H   0  0  0  0  0  0  0  0  0  0  0  0
   -5.1755   -0.7197    0.8456 H   0  0  0  0  0  0  0  0  0  0  0  0
   -5.2456    0.2391   -0.6419 H   0  0  0  0  0  0  0  0  0  0  0  0
    5.1046    1.2225   -0.6590 H   0  0  0  0  0  0  0  0  0  0  0  0
    5.0538    1.1203    1.1084 H   0  0  0  0  0  0  0  0  0  0  0  0
    5.2785   -0.3473    0.1426 H   0  0  0  0  0  0  0  0  0  0  0  0
  1  2  1  0
  2  3  3  0
  3  4  1  0
  4  5  3  0
  5  6  1  0
  6  7  3  0
  7  8  1  0
  1  9  1  0
  1 10  1  0
  1 11  1  0
  8 12  1  0
  8 13  1  0
  8 14  1  0
M  END
>  <anchor_atom_maps>  (100) 
1,2

>  <distance_A>  (100) 
9.60495305422873

>  <Rg_A>  (100) 
3.296746062423604

>  <energy_kcal_mol>  (100) 
-0.12237371755903426

>  <ensemble>  (100) 
ETKDGv3 unweighted sampling; not a thermodynamic population

$$$$
