
     RDKit          3D

129135  0  0  0  0  0  0  0  0999 V2000
   12.1900  -24.0970  -13.1860 C   0  0  0  0  0  0  0  0  0  0  0  0
   12.7800  -22.8740  -12.4670 C   0  0  0  0  0  0  0  0  0  0  0  0
   11.9740  -21.9220  -11.9440 N   0  0  0  0  0  0  0  0  0  0  0  0
   12.5910  -20.8930  -11.3580 C   0  0  0  0  0  0  0  0  0  0  0  0
   14.2020  -21.1670  -11.4740 S   0  0  0  0  0  0  0  0  0  0  0  0
   14.0880  -22.6490  -12.3090 C   0  0  0  0  0  0  0  0  0  0  0  0
   15.1210  -23.4320  -12.6950 C   0  0  0  0  0  0  0  0  0  0  0  0
   16.1730  -23.6240  -11.7980 C   0  0  0  0  0  0  0  0  0  0  0  0
   17.2690  -24.4240  -12.1270 C   0  0  0  0  0  0  0  0  0  0  0  0
   15.2070  -24.0710  -13.9460 C   0  0  0  0  0  0  0  0  0  0  0  0
   16.3100  -24.8760  -14.2750 C   0  0  0  0  0  0  0  0  0  0  0  0
   17.3690  -25.0570  -13.3730 C   0  0  0  0  0  0  0  0  0  0  0  0
   18.4570  -25.8660  -13.6930 C   0  0  0  0  0  0  0  0  0  0  0  0
   19.6910  -25.3240  -13.0650 N   0  0  0  0  0  0  0  0  0  0  0  0
   20.5260  -24.4390  -13.6640 C   0  0  0  0  0  0  0  0  0  0  0  0
   20.3610  -24.0100  -14.8110 O   0  0  0  0  0  0  0  0  0  0  0  0
   21.6220  -24.0140  -12.8590 C   0  0  2  0  0  0  0  0  0  0  0  0
   21.2120  -22.8140  -12.0060 C   0  0  0  0  0  0  0  0  0  0  0  0
   22.4830  -21.9950  -11.8410 C   0  0  1  0  0  0  0  0  0  0  0  0
   23.2650  -22.4900  -10.7380 O   0  0  0  0  0  0  0  0  0  0  0  0
   23.2540  -22.1880  -13.1480 C   0  0  0  0  0  0  0  0  0  0  0  0
   22.8690  -23.5530  -13.6170 N   0  0  0  0  0  0  0  0  0  0  0  0
   23.4900  -24.3530  -14.5060 C   0  0  0  0  0  0  0  0  0  0  0  0
   23.0970  -25.4920  -14.7610 O   0  0  0  0  0  0  0  0  0  0  0  0
   24.7910  -23.8610  -15.1550 C   0  0  2  0  0  0  0  0  0  0  0  0
   24.6610  -23.4100  -16.6370 C   0  0  0  0  0  0  0  0  0  0  0  0
   26.0730  -23.3150  -17.2250 C   0  0  0  0  0  0  0  0  0  0  0  0
   23.8280  -24.3700  -17.4950 C   0  0  0  0  0  0  0  0  0  0  0  0
   24.0030  -22.0330  -16.7370 C   0  0  0  0  0  0  0  0  0  0  0  0
   25.6310  -25.0530  -15.0980 N   0  0  0  0  0  0  0  0  0  0  0  0
   26.7590  -25.1800  -14.3920 C   0  0  0  0  0  0  0  0  0  0  0  0
   27.3250  -24.2720  -13.7710 O   0  0  0  0  0  0  0  0  0  0  0  0
   27.3550  -26.5780  -14.5400 C   0  0  0  0  0  0  0  0  0  0  0  0
   27.5130  -26.5970  -15.9740 O   0  0  0  0  0  0  0  0  0  0  0  0
   27.4510  -27.7970  -16.7090 C   0  0  0  0  0  0  0  0  0  0  0  0
   26.4470  -27.5180  -17.8410 C   0  0  0  0  0  0  0  0  0  0  0  0
   25.3780  -28.4820  -17.8320 O   0  0  0  0  0  0  0  0  0  0  0  0
   24.3280  -28.1870  -16.9310 C   0  0  0  0  0  0  0  0  0  0  0  0
   23.1160  -29.0280  -17.3700 C   0  0  0  0  0  0  0  0  0  0  0  0
   22.9930  -29.1120  -18.8140 O   0  0  0  0  0  0  0  0  0  0  0  0
   21.7870  -28.5580  -19.2670 C   0  0  0  0  0  0  0  0  0  0  0  0
   20.6260  -29.5430  -19.0270 C   0  0  0  0  0  0  0  0  0  0  0  0
   21.0130  -30.9560  -18.7790 N   0  0  0  0  0  0  0  0  0  0  0  0
   20.9000  -31.5970  -17.5750 C   0  0  0  0  0  0  0  0  0  0  0  0
   20.5370  -31.0540  -16.5290 O   0  0  0  0  0  0  0  0  0  0  0  0
   21.2890  -33.1030  -17.5870 C   0  0  0  0  0  0  0  0  0  0  0  0
   21.5820  -33.6400  -16.1750 C   0  0  2  0  0  0  0  0  0  0  0  0
   22.8600  -33.0970  -15.6750 N   0  0  0  0  0  0  0  0  0  0  0  0
   21.6820  -35.0520  -16.0730 C   0  0  0  0  0  0  0  0  0  0  0  0
   21.5110  -35.9100  -17.0840 N   0  0  0  0  0  0  0  0  0  0  0  0
   21.6650  -37.0860  -16.6590 N   0  0  0  0  0  0  0  0  0  0  0  0
   21.9400  -37.0280  -15.3580 C   0  0  0  0  0  0  0  0  0  0  0  0
   22.1820  -38.2400  -14.4610 C   0  0  0  0  0  0  0  0  0  0  0  0
   21.9700  -35.7620  -14.9740 N   0  0  0  0  0  0  0  0  0  0  0  0
   22.1800  -35.2040  -13.7750 C   0  0  0  0  0  0  0  0  0  0  0  0
   21.5840  -35.8540  -12.2890 S   0  0  0  0  0  0  0  0  0  0  0  0
   22.1870  -34.6300  -11.3970 C   0  0  0  0  0  0  0  0  0  0  0  0
   22.0460  -34.5230   -9.8720 C   0  0  0  0  0  0  0  0  0  0  0  0
   22.8150  -33.7430  -12.1920 C   0  0  0  0  0  0  0  0  0  0  0  0
   23.4740  -32.4950  -11.5820 C   0  0  0  0  0  0  0  0  0  0  0  0
   22.8260  -34.0530  -13.5180 C   0  0  0  0  0  0  0  0  0  0  0  0
   23.4020  -33.2950  -14.4710 C   0  0  0  0  0  0  0  0  0  0  0  0
   24.6430  -32.6870  -14.2910 C   0  0  0  0  0  0  0  0  0  0  0  0
   25.7300  -33.3770  -13.7560 C   0  0  0  0  0  0  0  0  0  0  0  0
   26.9620  -32.7390  -13.5830 C   0  0  0  0  0  0  0  0  0  0  0  0
   27.1250  -31.4080  -13.9500 C   0  0  0  0  0  0  0  0  0  0  0  0
   28.6800  -30.5780  -13.7290 Cl  0  0  0  0  0  0  0  0  0  0  0  0
   26.0410  -30.7300  -14.4950 C   0  0  0  0  0  0  0  0  0  0  0  0
   24.8110  -31.3620  -14.6650 C   0  0  0  0  0  0  0  0  0  0  0  0
   11.8383  -24.8260  -12.4410 H   0  0  0  0  0  0  0  0  0  0  0  0
   11.3457  -23.7801  -13.8158 H   0  0  0  0  0  0  0  0  0  0  0  0
   12.9636  -24.5606  -13.8158 H   0  0  0  0  0  0  0  0  0  0  0  0
   12.1083  -20.0245  -10.8860 H   0  0  0  0  0  0  0  0  0  0  0  0
   16.1379  -23.1357  -10.8130 H   0  0  0  0  0  0  0  0  0  0  0  0
   18.0739  -24.5607  -11.3898 H   0  0  0  0  0  0  0  0  0  0  0  0
   14.3970  -23.9378  -14.6782 H   0  0  0  0  0  0  0  0  0  0  0  0
   16.3440  -25.3726  -15.2559 H   0  0  0  0  0  0  0  0  0  0  0  0
   18.2757  -26.8853  -13.3213 H   0  0  0  0  0  0  0  0  0  0  0  0
   18.5849  -25.8865  -14.7853 H   0  0  0  0  0  0  0  0  0  0  0  0
   19.9268  -25.6411  -12.1138 H   0  0  0  0  0  0  0  0  0  0  0  0
   21.8770  -24.9164  -12.2840 H   0  0  0  0  0  0  0  0  0  0  0  0
   20.4358  -22.2245  -12.5159 H   0  0  0  0  0  0  0  0  0  0  0  0
   20.7897  -23.1206  -11.0377 H   0  0  0  0  0  0  0  0  0  0  0  0
   22.2612  -20.9375  -11.6346 H   0  0  0  0  0  0  0  0  0  0  0  0
   22.8401  -22.2210   -9.8852 H   0  0  0  0  0  0  0  0  0  0  0  0
   22.9618  -21.4272  -13.8868 H   0  0  0  0  0  0  0  0  0  0  0  0
   24.3405  -22.0865  -13.0093 H   0  0  0  0  0  0  0  0  0  0  0  0
   25.1664  -22.9666  -14.6362 H   0  0  0  0  0  0  0  0  0  0  0  0
   26.8079  -23.2656  -16.4080 H   0  0  0  0  0  0  0  0  0  0  0  0
   26.2726  -24.2017  -17.8445 H   0  0  0  0  0  0  0  0  0  0  0  0
   26.1520  -22.4095  -17.8445 H   0  0  0  0  0  0  0  0  0  0  0  0
   23.2485  -25.0378  -16.8406 H   0  0  0  0  0  0  0  0  0  0  0  0
   23.1406  -23.7918  -18.1299 H   0  0  0  0  0  0  0  0  0  0  0  0
   24.4973  -24.9690  -18.1299 H   0  0  0  0  0  0  0  0  0  0  0  0
   23.8160  -21.6417  -15.7261 H   0  0  0  0  0  0  0  0  0  0  0  0
   24.6702  -21.3462  -17.2784 H   0  0  0  0  0  0  0  0  0  0  0  0
   23.0495  -22.1207  -17.2784 H   0  0  0  0  0  0  0  0  0  0  0  0
   25.3281  -25.8680  -15.6502 H   0  0  0  0  0  0  0  0  0  0  0  0
   28.3175  -26.6750  -14.0164 H   0  0  0  0  0  0  0  0  0  0  0  0
   26.7566  -27.3979  -14.1161 H   0  0  0  0  0  0  0  0  0  0  0  0
   28.4389  -28.0493  -17.1217 H   0  0  0  0  0  0  0  0  0  0  0  0
   27.1441  -28.6490  -16.0846 H   0  0  0  0  0  0  0  0  0  0  0  0
   26.0246  -26.5112  -17.7070 H   0  0  0  0  0  0  0  0  0  0  0  0
   26.9752  -27.5896  -18.8032 H   0  0  0  0  0  0  0  0  0  0  0  0
   24.6228  -28.4541  -15.9054 H   0  0  0  0  0  0  0  0  0  0  0  0
   24.0883  -27.1135  -16.9420 H   0  0  0  0  0  0  0  0  0  0  0  0
   23.2268  -30.0449  -16.9654 H   0  0  0  0  0  0  0  0  0  0  0  0
   22.2103  -28.5366  -16.9848 H   0  0  0  0  0  0  0  0  0  0  0  0
   21.5891  -27.6232  -18.7220 H   0  0  0  0  0  0  0  0  0  0  0  0
   21.8680  -28.3541  -20.3449 H   0  0  0  0  0  0  0  0  0  0  0  0
   20.0604  -29.1902  -18.1520 H   0  0  0  0  0  0  0  0  0  0  0  0
   20.0469  -29.5533  -19.9622 H   0  0  0  0  0  0  0  0  0  0  0  0
   21.3943  -31.4925  -19.5713 H   0  0  0  0  0  0  0  0  0  0  0  0
   20.4584  -33.6798  -18.0199 H   0  0  0  0  0  0  0  0  0  0  0  0
   22.2058  -33.2097  -18.1854 H   0  0  0  0  0  0  0  0  0  0  0  0
   20.7126  -33.3160  -15.5842 H   0  0  0  0  0  0  0  0  0  0  0  0
   22.1208  -37.9336  -13.4063 H   0  0  0  0  0  0  0  0  0  0  0  0
   21.4190  -39.0056  -14.6653 H   0  0  0  0  0  0  0  0  0  0  0  0
   23.1805  -38.6538  -14.6653 H   0  0  0  0  0  0  0  0  0  0  0  0
   22.8330  -35.1202   -9.3882 H   0  0  0  0  0  0  0  0  0  0  0  0
   22.1449  -33.4706   -9.5676 H   0  0  0  0  0  0  0  0  0  0  0  0
   21.0591  -34.9015   -9.5676 H   0  0  0  0  0  0  0  0  0  0  0  0
   23.4390  -32.5612  -10.4846 H   0  0  0  0  0  0  0  0  0  0  0  0
   24.5214  -32.4348  -11.9125 H   0  0  0  0  0  0  0  0  0  0  0  0
   22.9330  -31.5961  -11.9125 H   0  0  0  0  0  0  0  0  0  0  0  0
   25.6173  -34.4325  -13.4675 H   0  0  0  0  0  0  0  0  0  0  0  0
   27.8087  -33.2944  -13.1533 H   0  0  0  0  0  0  0  0  0  0  0  0
   26.1559  -29.6784  -14.7967 H   0  0  0  0  0  0  0  0  0  0  0  0
   23.9669  -30.8060  -15.0990 H   0  0  0  0  0  0  0  0  0  0  0  0
  2  1  1  0
  3  2  1  0
  4  3  2  0
  5  4  1  0
  6  2  2  0
  6  5  1  0
  7  6  1  0
  8  7  1  0
  9  8  2  0
 10  7  2  0
 11 10  1  0
 12 11  2  0
 12  9  1  0
 13 12  1  0
 14 13  1  0
 15 14  1  0
 16 15  2  0
 17 15  1  0
 18 17  1  0
 19 18  1  0
 20 19  1  0
 21 19  1  0
 22 17  1  0
 22 21  1  0
 23 22  1  0
 24 23  2  0
 25 23  1  0
 26 25  1  0
 27 26  1  0
 28 26  1  0
 29 26  1  0
 30 25  1  0
 31 30  1  0
 32 31  2  0
 33 31  1  0
 34 33  1  0
 35 34  1  0
 36 35  1  0
 37 36  1  0
 38 37  1  0
 39 38  1  0
 40 39  1  0
 41 40  1  0
 42 41  1  0
 43 42  1  0
 44 43  1  0
 45 44  2  0
 46 44  1  0
 47 46  1  0
 48 47  1  0
 49 47  1  0
 50 49  2  0
 51 50  1  0
 52 51  2  0
 53 52  1  0
 54 49  1  0
 54 52  1  0
 55 54  1  0
 56 55  1  0
 57 56  1  0
 58 57  1  0
 59 57  2  0
 60 59  1  0
 61 59  1  0
 61 55  2  0
 62 61  1  0
 62 48  2  0
 63 62  1  0
 64 63  1  0
 65 64  2  0
 66 65  1  0
 67 66  1  0
 68 66  2  0
 69 68  1  0
 69 63  2  0
  1 70  1  0
  1 71  1  0
  1 72  1  0
  4 73  1  0
  8 74  1  0
  9 75  1  0
 10 76  1  0
 11 77  1  0
 13 78  1  0
 13 79  1  0
 14 80  1  0
 17 81  1  1
 18 82  1  0
 18 83  1  0
 19 84  1  1
 20 85  1  0
 21 86  1  0
 21 87  1  0
 25 88  1  1
 27 89  1  0
 27 90  1  0
 27 91  1  0
 28 92  1  0
 28 93  1  0
 28 94  1  0
 29 95  1  0
 29 96  1  0
 29 97  1  0
 30 98  1  0
 33 99  1  0
 33100  1  0
 35101  1  0
 35102  1  0
 36103  1  0
 36104  1  0
 38105  1  0
 38106  1  0
 39107  1  0
 39108  1  0
 41109  1  0
 41110  1  0
 42111  1  0
 42112  1  0
 43113  1  0
 46114  1  0
 46115  1  0
 47116  1  1
 53117  1  0
 53118  1  0
 53119  1  0
 58120  1  0
 58121  1  0
 58122  1  0
 60123  1  0
 60124  1  0
 60125  1  0
 64126  1  0
 65127  1  0
 68128  1  0
 69129  1  0
M  END
$$$$
