W01 Acrylamide
     RDKit          3D

 30 31  0  0  0  0  0  0  0  0999 V2000
    6.6791    0.7906    0.2855 C   0  0  0  0  0  0  0  0  0  0  0  0
    5.5045    0.6438   -0.3412 C   0  0  0  0  0  0  0  0  0  0  0  0
    4.2379    0.5050    0.4374 C   0  0  0  0  0  0  0  0  0  0  0  0
    4.2472    0.5225    1.6610 O   0  0  0  0  0  0  0  0  0  0  0  0
    3.1432    0.3649   -0.3909 N   0  0  0  0  0  0  0  0  0  0  0  0
    1.7945    0.2112   -0.0062 C   0  0  0  0  0  0  0  0  0  0  0  0
    0.8470    0.0859   -1.0260 C   0  0  0  0  0  0  0  0  0  0  0  0
   -0.5146   -0.0706   -0.7293 C   0  0  0  0  0  0  0  0  0  0  0  0
   -0.9689   -0.1064    0.5896 C   0  0  0  0  0  0  0  0  0  0  0  0
   -2.3093   -0.2595    0.9523 N   0  0  0  0  0  0  0  0  0  0  0  0
   -3.4971   -0.4089    0.2435 C   0  0  0  0  0  0  0  0  0  0  0  0
   -4.5975   -0.5283    1.0080 N   0  0  0  0  0  0  0  0  0  0  0  0
   -5.7779   -0.6759    0.3767 C   0  0  0  0  0  0  0  0  0  0  0  0
   -5.9080   -0.7095   -0.9874 C   0  0  0  0  0  0  0  0  0  0  0  0
   -4.7349   -0.5806   -1.6848 C   0  0  0  0  0  0  0  0  0  0  0  0
   -3.5325   -0.4311   -1.0980 N   0  0  0  0  0  0  0  0  0  0  0  0
   -0.0081    0.0204    1.6036 C   0  0  0  0  0  0  0  0  0  0  0  0
    1.3550    0.1771    1.3137 C   0  0  0  0  0  0  0  0  0  0  0  0
    6.7445    0.8128    1.3706 H   0  0  0  0  0  0  0  0  0  0  0  0
    7.6024    0.8919   -0.2741 H   0  0  0  0  0  0  0  0  0  0  0  0
    5.4617    0.6243   -1.4223 H   0  0  0  0  0  0  0  0  0  0  0  0
    3.3094    0.3712   -1.3875 H   0  0  0  0  0  0  0  0  0  0  0  0
    1.1434    0.1068   -2.0712 H   0  0  0  0  0  0  0  0  0  0  0  0
   -1.2080   -0.1634   -1.5595 H   0  0  0  0  0  0  0  0  0  0  0  0
   -2.5193   -0.2710    1.9394 H   0  0  0  0  0  0  0  0  0  0  0  0
   -6.6424   -0.7690    1.0272 H   0  0  0  0  0  0  0  0  0  0  0  0
   -6.8637   -0.8286   -1.4766 H   0  0  0  0  0  0  0  0  0  0  0  0
   -4.7207   -0.5935   -2.7705 H   0  0  0  0  0  0  0  0  0  0  0  0
   -0.3092   -0.0011    2.6486 H   0  0  0  0  0  0  0  0  0  0  0  0
    2.0421    0.2692    2.1488 H   0  0  0  0  0  0  0  0  0  0  0  0
  1  2  2  0
  2  3  1  0
  3  4  2  0
  3  5  1  0
  5  6  1  0
  6  7  1  0
  7  8  2  0
  8  9  1  0
  9 10  1  0
 10 11  1  0
 11 12  2  0
 12 13  1  0
 13 14  2  0
 14 15  1  0
 15 16  2  0
  9 17  2  0
 17 18  1  0
 18  6  2  0
 16 11  1  0
  1 19  1  0
  1 20  1  0
  2 21  1  0
  5 22  1  0
  7 23  1  0
  8 24  1  0
 10 25  1  0
 13 26  1  0
 14 27  1  0
 15 28  1  0
 17 29  1  0
 18 30  1  0
M  END
>  <reaction_center_zero_based>  (1) 
0

$$$$
W02 Dimethylaminomethyl acrylamide
     RDKit          3D

 41 42  0  0  0  0  0  0  0  0999 V2000
   -6.2136   -0.9836    0.6751 C   0  0  0  0  0  0  0  0  0  0  0  0
   -6.6003    0.0482   -0.2826 N   0  0  0  0  0  0  0  0  0  0  0  0
   -7.0354    1.2650    0.3969 C   0  0  0  0  0  0  0  0  0  0  0  0
   -5.5764    0.2925   -1.3012 C   0  0  0  0  0  0  0  0  0  0  0  0
   -4.2536    0.7913   -0.7960 C   0  0  0  0  0  0  0  0  0  0  0  0
   -3.0949    0.1269   -0.9380 C   0  0  0  0  0  0  0  0  0  0  0  0
   -1.8226    0.7052   -0.4139 C   0  0  0  0  0  0  0  0  0  0  0  0
   -1.8095    1.7937    0.1451 O   0  0  0  0  0  0  0  0  0  0  0  0
   -0.7488   -0.1293   -0.6479 N   0  0  0  0  0  0  0  0  0  0  0  0
    0.5986    0.0915   -0.2921 C   0  0  0  0  0  0  0  0  0  0  0  0
    1.0585    1.2253    0.3710 C   0  0  0  0  0  0  0  0  0  0  0  0
    2.4185    1.3603    0.6853 C   0  0  0  0  0  0  0  0  0  0  0  0
    3.3559    0.3727    0.3488 C   0  0  0  0  0  0  0  0  0  0  0  0
    4.6945    0.5743    0.6937 N   0  0  0  0  0  0  0  0  0  0  0  0
    5.8627   -0.1628    0.5275 C   0  0  0  0  0  0  0  0  0  0  0  0
    6.9701    0.4184    1.0230 N   0  0  0  0  0  0  0  0  0  0  0  0
    8.1323   -0.2491    0.8911 C   0  0  0  0  0  0  0  0  0  0  0  0
    8.2375   -1.4740    0.2850 C   0  0  0  0  0  0  0  0  0  0  0  0
    7.0589   -1.9889   -0.1894 C   0  0  0  0  0  0  0  0  0  0  0  0
    5.8741   -1.3591   -0.0808 N   0  0  0  0  0  0  0  0  0  0  0  0
    2.8812   -0.7589   -0.3157 C   0  0  0  0  0  0  0  0  0  0  0  0
    1.5226   -0.9001   -0.6330 C   0  0  0  0  0  0  0  0  0  0  0  0
   -7.0600   -1.2375    1.3233 H   0  0  0  0  0  0  0  0  0  0  0  0
   -5.3795   -0.6751    1.3151 H   0  0  0  0  0  0  0  0  0  0  0  0
   -5.9304   -1.9070    0.1576 H   0  0  0  0  0  0  0  0  0  0  0  0
   -7.3562    2.0216   -0.3278 H   0  0  0  0  0  0  0  0  0  0  0  0
   -7.9036    1.0551    1.0319 H   0  0  0  0  0  0  0  0  0  0  0  0
   -6.2537    1.6996    1.0293 H   0  0  0  0  0  0  0  0  0  0  0  0
   -5.4364   -0.6303   -1.8795 H   0  0  0  0  0  0  0  0  0  0  0  0
   -5.9609    1.0207   -2.0272 H   0  0  0  0  0  0  0  0  0  0  0  0
   -4.2553    1.7644   -0.3083 H   0  0  0  0  0  0  0  0  0  0  0  0
   -3.0649   -0.8378   -1.4276 H   0  0  0  0  0  0  0  0  0  0  0  0
   -0.9305   -1.0006   -1.1264 H   0  0  0  0  0  0  0  0  0  0  0  0
    0.3903    2.0294    0.6621 H   0  0  0  0  0  0  0  0  0  0  0  0
    2.7362    2.2621    1.2042 H   0  0  0  0  0  0  0  0  0  0  0  0
    4.9210    1.4336    1.1723 H   0  0  0  0  0  0  0  0  0  0  0  0
    9.0033    0.2519    1.3032 H   0  0  0  0  0  0  0  0  0  0  0  0
    9.1789   -1.9949    0.1883 H   0  0  0  0  0  0  0  0  0  0  0  0
    7.0257   -2.9533   -0.6874 H   0  0  0  0  0  0  0  0  0  0  0  0
    3.5559   -1.5591   -0.6037 H   0  0  0  0  0  0  0  0  0  0  0  0
    1.2099   -1.8025   -1.1513 H   0  0  0  0  0  0  0  0  0  0  0  0
  1  2  1  0
  2  3  1  0
  2  4  1  0
  4  5  1  0
  5  6  2  0
  6  7  1  0
  7  8  2  0
  7  9  1  0
  9 10  1  0
 10 11  1  0
 11 12  2  0
 12 13  1  0
 13 14  1  0
 14 15  1  0
 15 16  2  0
 16 17  1  0
 17 18  2  0
 18 19  1  0
 19 20  2  0
 13 21  2  0
 21 22  1  0
 22 10  2  0
 20 15  1  0
  1 23  1  0
  1 24  1  0
  1 25  1  0
  3 26  1  0
  3 27  1  0
  3 28  1  0
  4 29  1  0
  4 30  1  0
  5 31  1  0
  6 32  1  0
  9 33  1  0
 11 34  1  0
 12 35  1  0
 14 36  1  0
 17 37  1  0
 18 38  1  0
 19 39  1  0
 21 40  1  0
 22 41  1  0
M  END
>  <reaction_center_zero_based>  (2) 
4

$$$$
W03 Alpha-cyanoacrylamide
     RDKit          3D

 31 32  0  0  0  0  0  0  0  0999 V2000
    6.5474   -0.2079    0.3729 C   0  0  0  0  0  0  0  0  0  0  0  0
    5.4119    0.1084   -0.2748 C   0  0  0  0  0  0  0  0  0  0  0  0
    5.4646    0.7063   -1.5615 C   0  0  0  0  0  0  0  0  0  0  0  0
    5.4547    1.1959   -2.6133 N   0  0  0  0  0  0  0  0  0  0  0  0
    4.0937   -0.1851    0.3930 C   0  0  0  0  0  0  0  0  0  0  0  0
    4.0821   -0.7031    1.5068 O   0  0  0  0  0  0  0  0  0  0  0  0
    2.9738    0.1704   -0.3396 N   0  0  0  0  0  0  0  0  0  0  0  0
    1.6199    0.0138    0.0351 C   0  0  0  0  0  0  0  0  0  0  0  0
    0.6526    0.4500   -0.8752 C   0  0  0  0  0  0  0  0  0  0  0  0
   -0.7148    0.3337   -0.5866 C   0  0  0  0  0  0  0  0  0  0  0  0
   -1.1566   -0.2198    0.6154 C   0  0  0  0  0  0  0  0  0  0  0  0
   -2.5015   -0.3643    0.9638 N   0  0  0  0  0  0  0  0  0  0  0  0
   -3.7056   -0.0573    0.3377 C   0  0  0  0  0  0  0  0  0  0  0  0
   -3.7562    0.5090   -0.8779 N   0  0  0  0  0  0  0  0  0  0  0  0
   -4.9732    0.7648   -1.3935 C   0  0  0  0  0  0  0  0  0  0  0  0
   -6.1465    0.4784   -0.7450 C   0  0  0  0  0  0  0  0  0  0  0  0
   -6.0002   -0.0981    0.4900 C   0  0  0  0  0  0  0  0  0  0  0  0
   -4.8048   -0.3726    1.0463 N   0  0  0  0  0  0  0  0  0  0  0  0
   -0.1769   -0.6537    1.5203 C   0  0  0  0  0  0  0  0  0  0  0  0
    1.1925   -0.5403    1.2380 C   0  0  0  0  0  0  0  0  0  0  0  0
    7.5255   -0.0192   -0.0601 H   0  0  0  0  0  0  0  0  0  0  0  0
    6.5307   -0.6664    1.3588 H   0  0  0  0  0  0  0  0  0  0  0  0
    3.1018    0.5932   -1.2518 H   0  0  0  0  0  0  0  0  0  0  0  0
    0.9366    0.8897   -1.8281 H   0  0  0  0  0  0  0  0  0  0  0  0
   -1.4223    0.6887   -1.3297 H   0  0  0  0  0  0  0  0  0  0  0  0
   -2.7025   -0.7794    1.8615 H   0  0  0  0  0  0  0  0  0  0  0  0
   -4.9709    1.2229   -2.3781 H   0  0  0  0  0  0  0  0  0  0  0  0
   -7.1141    0.6914   -1.1754 H   0  0  0  0  0  0  0  0  0  0  0  0
   -6.8635   -0.3667    1.0916 H   0  0  0  0  0  0  0  0  0  0  0  0
   -0.4684   -1.0927    2.4720 H   0  0  0  0  0  0  0  0  0  0  0  0
    1.8901   -0.8982    1.9877 H   0  0  0  0  0  0  0  0  0  0  0  0
  1  2  2  0
  2  3  1  0
  3  4  3  0
  2  5  1  0
  5  6  2  0
  5  7  1  0
  7  8  1  0
  8  9  1  0
  9 10  2  0
 10 11  1  0
 11 12  1  0
 12 13  1  0
 13 14  2  0
 14 15  1  0
 15 16  2  0
 16 17  1  0
 17 18  2  0
 11 19  2  0
 19 20  1  0
 20  8  2  0
 18 13  1  0
  1 21  1  0
  1 22  1  0
  7 23  1  0
  9 24  1  0
 10 25  1  0
 12 26  1  0
 15 27  1  0
 16 28  1  0
 17 29  1  0
 19 30  1  0
 20 31  1  0
M  END
>  <reaction_center_zero_based>  (3) 
0

$$$$
W04 Chloroacetamide
     RDKit          3D

 29 30  0  0  0  0  0  0  0  0999 V2000
   -5.7907    0.7861   -1.7375 Cl  0  0  0  0  0  0  0  0  0  0  0  0
   -5.9167    0.0558   -0.1192 C   0  0  0  0  0  0  0  0  0  0  0  0
   -4.5746   -0.3965    0.4392 C   0  0  0  0  0  0  0  0  0  0  0  0
   -4.5519   -1.1409    1.4186 O   0  0  0  0  0  0  0  0  0  0  0  0
   -3.4675    0.1265   -0.2006 N   0  0  0  0  0  0  0  0  0  0  0  0
   -2.1081   -0.0746    0.1041 C   0  0  0  0  0  0  0  0  0  0  0  0
   -1.1688    0.5463   -0.7234 C   0  0  0  0  0  0  0  0  0  0  0  0
    0.2058    0.3994   -0.4892 C   0  0  0  0  0  0  0  0  0  0  0  0
    0.6812   -0.3692    0.5741 C   0  0  0  0  0  0  0  0  0  0  0  0
    2.0354   -0.5541    0.8629 N   0  0  0  0  0  0  0  0  0  0  0  0
    3.2213   -0.1102    0.2863 C   0  0  0  0  0  0  0  0  0  0  0  0
    3.2381    0.6883   -0.7921 N   0  0  0  0  0  0  0  0  0  0  0  0
    4.4400    1.0602   -1.2708 C   0  0  0  0  0  0  0  0  0  0  0  0
    5.6309    0.6677   -0.7167 C   0  0  0  0  0  0  0  0  0  0  0  0
    5.5192   -0.1460    0.3807 C   0  0  0  0  0  0  0  0  0  0  0  0
    4.3398   -0.5439    0.8951 N   0  0  0  0  0  0  0  0  0  0  0  0
   -0.2724   -0.9856    1.3979 C   0  0  0  0  0  0  0  0  0  0  0  0
   -1.6486   -0.8427    1.1694 C   0  0  0  0  0  0  0  0  0  0  0  0
   -6.3515    0.7971    0.5564 H   0  0  0  0  0  0  0  0  0  0  0  0
   -6.5796   -0.8098   -0.1990 H   0  0  0  0  0  0  0  0  0  0  0  0
   -3.6644    0.7022   -1.0141 H   0  0  0  0  0  0  0  0  0  0  0  0
   -1.4829    1.1559   -1.5667 H   0  0  0  0  0  0  0  0  0  0  0  0
    0.8921    0.9030   -1.1630 H   0  0  0  0  0  0  0  0  0  0  0  0
    2.2612   -1.1390    1.6538 H   0  0  0  0  0  0  0  0  0  0  0  0
    4.4103    1.7055   -2.1436 H   0  0  0  0  0  0  0  0  0  0  0  0
    6.5860    0.9768   -1.1155 H   0  0  0  0  0  0  0  0  0  0  0  0
    6.3988   -0.5163    0.8988 H   0  0  0  0  0  0  0  0  0  0  0  0
    0.0458   -1.5945    2.2414 H   0  0  0  0  0  0  0  0  0  0  0  0
   -2.3285   -1.3475    1.8478 H   0  0  0  0  0  0  0  0  0  0  0  0
  1  2  1  0
  2  3  1  0
  3  4  2  0
  3  5  1  0
  5  6  1  0
  6  7  1  0
  7  8  2  0
  8  9  1  0
  9 10  1  0
 10 11  1  0
 11 12  2  0
 12 13  1  0
 13 14  2  0
 14 15  1  0
 15 16  2  0
  9 17  2  0
 17 18  1  0
 18  6  2  0
 16 11  1  0
  2 19  1  0
  2 20  1  0
  5 21  1  0
  7 22  1  0
  8 23  1  0
 10 24  1  0
 13 25  1  0
 14 26  1  0
 15 27  1  0
 17 28  1  0
 18 29  1  0
M  END
>  <reaction_center_zero_based>  (4) 
1

$$$$
W05 Vinyl sulfone
     RDKit          3D

 29 30  0  0  0  0  0  0  0  0999 V2000
    4.9938    0.9451    1.2535 C   0  0  0  0  0  0  0  0  0  0  0  0
    4.3543   -0.2148    1.4553 C   0  0  0  0  0  0  0  0  0  0  0  0
    3.8846   -1.2210    0.1180 S   0  0  0  0  0  0  0  0  0  0  0  0
    3.7739   -2.5887    0.5897 O   0  0  0  0  0  0  0  0  0  0  0  0
    4.6850   -0.9107   -1.0528 O   0  0  0  0  0  0  0  0  0  0  0  0
    2.2304   -0.6467   -0.2072 C   0  0  0  0  0  0  0  0  0  0  0  0
    1.1540   -1.2170    0.4714 C   0  0  0  0  0  0  0  0  0  0  0  0
   -0.1455   -0.7688    0.2072 C   0  0  0  0  0  0  0  0  0  0  0  0
   -0.3932    0.2322   -0.7400 C   0  0  0  0  0  0  0  0  0  0  0  0
   -1.6662    0.7309   -1.0317 N   0  0  0  0  0  0  0  0  0  0  0  0
   -2.9459    0.4660   -0.5529 C   0  0  0  0  0  0  0  0  0  0  0  0
   -3.1695   -0.3930    0.4532 N   0  0  0  0  0  0  0  0  0  0  0  0
   -4.4455   -0.5756    0.8417 C   0  0  0  0  0  0  0  0  0  0  0  0
   -5.5115    0.0676    0.2679 C   0  0  0  0  0  0  0  0  0  0  0  0
   -5.1900    0.9286   -0.7492 C   0  0  0  0  0  0  0  0  0  0  0  0
   -3.9293    1.1433   -1.1719 N   0  0  0  0  0  0  0  0  0  0  0  0
    0.7111    0.7796   -1.4180 C   0  0  0  0  0  0  0  0  0  0  0  0
    2.0154    0.3438   -1.1642 C   0  0  0  0  0  0  0  0  0  0  0  0
    5.2912    1.5649    2.0933 H   0  0  0  0  0  0  0  0  0  0  0  0
    5.2488    1.2989    0.2578 H   0  0  0  0  0  0  0  0  0  0  0  0
    4.1134   -0.5752    2.4458 H   0  0  0  0  0  0  0  0  0  0  0  0
    1.3066   -2.0093    1.2008 H   0  0  0  0  0  0  0  0  0  0  0  0
   -0.9621   -1.2311    0.7544 H   0  0  0  0  0  0  0  0  0  0  0  0
   -1.7402    1.3947   -1.7885 H   0  0  0  0  0  0  0  0  0  0  0  0
   -4.5845   -1.2799    1.6564 H   0  0  0  0  0  0  0  0  0  0  0  0
   -6.5291   -0.0923    0.5934 H   0  0  0  0  0  0  0  0  0  0  0  0
   -5.9567    1.4911   -1.2738 H   0  0  0  0  0  0  0  0  0  0  0  0
    0.5614    1.5584   -2.1631 H   0  0  0  0  0  0  0  0  0  0  0  0
    2.8453    0.7791   -1.7160 H   0  0  0  0  0  0  0  0  0  0  0  0
  1  2  2  0
  2  3  1  0
  3  4  2  0
  3  5  2  0
  3  6  1  0
  6  7  1  0
  7  8  2  0
  8  9  1  0
  9 10  1  0
 10 11  1  0
 11 12  2  0
 12 13  1  0
 13 14  2  0
 14 15  1  0
 15 16  2  0
  9 17  2  0
 17 18  1  0
 18  6  2  0
 16 11  1  0
  1 19  1  0
  1 20  1  0
  2 21  1  0
  7 22  1  0
  8 23  1  0
 10 24  1  0
 13 25  1  0
 14 26  1  0
 15 27  1  0
 17 28  1  0
 18 29  1  0
M  END
>  <reaction_center_zero_based>  (5) 
0

$$$$
W06 Methacrylamide
     RDKit          3D

 33 34  0  0  0  0  0  0  0  0999 V2000
   -5.1489    1.1203    1.3833 C   0  0  0  0  0  0  0  0  0  0  0  0
   -5.0018    0.3547    0.2890 C   0  0  0  0  0  0  0  0  0  0  0  0
   -6.0984   -0.4867   -0.2863 C   0  0  0  0  0  0  0  0  0  0  0  0
   -3.7156    0.3487   -0.4811 C   0  0  0  0  0  0  0  0  0  0  0  0
   -3.7470    0.3943   -1.7042 O   0  0  0  0  0  0  0  0  0  0  0  0
   -2.6054    0.2228    0.3268 N   0  0  0  0  0  0  0  0  0  0  0  0
   -1.2542    0.1902   -0.0714 C   0  0  0  0  0  0  0  0  0  0  0  0
   -0.2947    0.0060    0.9276 C   0  0  0  0  0  0  0  0  0  0  0  0
    1.0716   -0.0343    0.6148 C   0  0  0  0  0  0  0  0  0  0  0  0
    1.5181    0.1081   -0.6997 C   0  0  0  0  0  0  0  0  0  0  0  0
    2.8628    0.0796   -1.0774 N   0  0  0  0  0  0  0  0  0  0  0  0
    4.0623   -0.0775   -0.3902 C   0  0  0  0  0  0  0  0  0  0  0  0
    4.1088   -0.2404    0.9412 N   0  0  0  0  0  0  0  0  0  0  0  0
    5.3219   -0.3834    1.5071 C   0  0  0  0  0  0  0  0  0  0  0  0
    6.4953   -0.3705    0.7984 C   0  0  0  0  0  0  0  0  0  0  0  0
    6.3534   -0.1990   -0.5542 C   0  0  0  0  0  0  0  0  0  0  0  0
    5.1620   -0.0520   -1.1646 N   0  0  0  0  0  0  0  0  0  0  0  0
    0.5447    0.2957   -1.6923 C   0  0  0  0  0  0  0  0  0  0  0  0
   -0.8231    0.3371   -1.3863 C   0  0  0  0  0  0  0  0  0  0  0  0
   -6.0906    1.1469    1.9236 H   0  0  0  0  0  0  0  0  0  0  0  0
   -4.3590    1.7703    1.7473 H   0  0  0  0  0  0  0  0  0  0  0  0
   -6.3803   -0.1287   -1.2818 H   0  0  0  0  0  0  0  0  0  0  0  0
   -6.9963   -0.4679    0.3405 H   0  0  0  0  0  0  0  0  0  0  0  0
   -5.7745   -1.5293   -0.3697 H   0  0  0  0  0  0  0  0  0  0  0  0
   -2.7770    0.1029    1.3159 H   0  0  0  0  0  0  0  0  0  0  0  0
   -0.5861   -0.1111    1.9678 H   0  0  0  0  0  0  0  0  0  0  0  0
    1.7748   -0.1809    1.4288 H   0  0  0  0  0  0  0  0  0  0  0  0
    3.0656    0.1823   -2.0607 H   0  0  0  0  0  0  0  0  0  0  0  0
    5.3165   -0.5128    2.5852 H   0  0  0  0  0  0  0  0  0  0  0  0
    7.4597   -0.4869    1.2707 H   0  0  0  0  0  0  0  0  0  0  0  0
    7.2170   -0.1731   -1.2121 H   0  0  0  0  0  0  0  0  0  0  0  0
    0.8397    0.4146   -2.7325 H   0  0  0  0  0  0  0  0  0  0  0  0
   -1.5211    0.4888   -2.2034 H   0  0  0  0  0  0  0  0  0  0  0  0
  1  2  2  0
  2  3  1  0
  2  4  1  0
  4  5  2  0
  4  6  1  0
  6  7  1  0
  7  8  1  0
  8  9  2  0
  9 10  1  0
 10 11  1  0
 11 12  1  0
 12 13  2  0
 13 14  1  0
 14 15  2  0
 15 16  1  0
 16 17  2  0
 10 18  2  0
 18 19  1  0
 19  7  2  0
 17 12  1  0
  1 20  1  0
  1 21  1  0
  3 22  1  0
  3 23  1  0
  3 24  1  0
  6 25  1  0
  8 26  1  0
  9 27  1  0
 11 28  1  0
 14 29  1  0
 15 30  1  0
 16 31  1  0
 18 32  1  0
 19 33  1  0
M  END
>  <reaction_center_zero_based>  (6) 
0

$$$$
W07 Beta-methyl cyanoacrylamide
     RDKit          3D

 34 35  0  0  0  0  0  0  0  0999 V2000
    7.2084    0.2840   -0.0022 C   0  0  0  0  0  0  0  0  0  0  0  0
    5.8167   -0.2663    0.0478 C   0  0  0  0  0  0  0  0  0  0  0  0
    4.6619    0.4254   -0.0494 C   0  0  0  0  0  0  0  0  0  0  0  0
    4.6413    1.8356   -0.2200 C   0  0  0  0  0  0  0  0  0  0  0  0
    4.5649    2.9850   -0.3598 N   0  0  0  0  0  0  0  0  0  0  0  0
    3.3650   -0.3465    0.0285 C   0  0  0  0  0  0  0  0  0  0  0  0
    3.3917   -1.5659    0.1762 O   0  0  0  0  0  0  0  0  0  0  0  0
    2.2166    0.4210   -0.0778 N   0  0  0  0  0  0  0  0  0  0  0  0
    0.8775   -0.0302   -0.0391 C   0  0  0  0  0  0  0  0  0  0  0  0
   -0.1240    0.9370   -0.1678 C   0  0  0  0  0  0  0  0  0  0  0  0
   -1.4799    0.5802   -0.1407 C   0  0  0  0  0  0  0  0  0  0  0  0
   -1.8761   -0.7484    0.0152 C   0  0  0  0  0  0  0  0  0  0  0  0
   -3.2073   -1.1699    0.0504 N   0  0  0  0  0  0  0  0  0  0  0  0
   -4.4346   -0.5210   -0.0426 C   0  0  0  0  0  0  0  0  0  0  0  0
   -5.5066   -1.3292    0.0424 N   0  0  0  0  0  0  0  0  0  0  0  0
   -6.7226   -0.7564   -0.0411 C   0  0  0  0  0  0  0  0  0  0  0  0
   -6.9155    0.5907   -0.2062 C   0  0  0  0  0  0  0  0  0  0  0  0
   -5.7671    1.3355   -0.2826 C   0  0  0  0  0  0  0  0  0  0  0  0
   -4.5312    0.8077   -0.2042 N   0  0  0  0  0  0  0  0  0  0  0  0
   -0.8625   -1.7092    0.1432 C   0  0  0  0  0  0  0  0  0  0  0  0
    0.4956   -1.3592    0.1170 C   0  0  0  0  0  0  0  0  0  0  0  0
    7.2424    1.3688   -0.1329 H   0  0  0  0  0  0  0  0  0  0  0  0
    7.7548   -0.1725   -0.8335 H   0  0  0  0  0  0  0  0  0  0  0  0
    7.7340    0.0401    0.9263 H   0  0  0  0  0  0  0  0  0  0  0  0
    5.7739   -1.3485    0.1780 H   0  0  0  0  0  0  0  0  0  0  0  0
    2.3086    1.4232   -0.1978 H   0  0  0  0  0  0  0  0  0  0  0  0
    0.1240    1.9882   -0.2918 H   0  0  0  0  0  0  0  0  0  0  0  0
   -2.2152    1.3722   -0.2451 H   0  0  0  0  0  0  0  0  0  0  0  0
   -3.3743   -2.1583    0.1678 H   0  0  0  0  0  0  0  0  0  0  0  0
   -7.5628   -1.4405    0.0316 H   0  0  0  0  0  0  0  0  0  0  0  0
   -7.8989    1.0327   -0.2712 H   0  0  0  0  0  0  0  0  0  0  0  0
   -5.8021    2.4130   -0.4132 H   0  0  0  0  0  0  0  0  0  0  0  0
   -1.1179   -2.7594    0.2671 H   0  0  0  0  0  0  0  0  0  0  0  0
    1.2212   -2.1589    0.2222 H   0  0  0  0  0  0  0  0  0  0  0  0
  1  2  1  0
  2  3  2  0
  3  4  1  0
  4  5  3  0
  3  6  1  0
  6  7  2  0
  6  8  1  0
  8  9  1  0
  9 10  1  0
 10 11  2  0
 11 12  1  0
 12 13  1  0
 13 14  1  0
 14 15  2  0
 15 16  1  0
 16 17  2  0
 17 18  1  0
 18 19  2  0
 12 20  2  0
 20 21  1  0
 21  9  2  0
 19 14  1  0
  1 22  1  0
  1 23  1  0
  1 24  1  0
  2 25  1  0
  8 26  1  0
 10 27  1  0
 11 28  1  0
 13 29  1  0
 16 30  1  0
 17 31  1  0
 18 32  1  0
 20 33  1  0
 21 34  1  0
M  END
>  <reaction_center_zero_based>  (7) 
1

$$$$
W08 Beta-isopropyl cyanoacrylamide
     RDKit          3D

 40 41  0  0  0  0  0  0  0  0999 V2000
   -6.6705    1.4840    0.2673 C   0  0  0  0  0  0  0  0  0  0  0  0
   -5.9731    0.1246    0.3236 C   0  0  0  0  0  0  0  0  0  0  0  0
   -6.7832   -0.9257   -0.4367 C   0  0  0  0  0  0  0  0  0  0  0  0
   -4.5829    0.2312   -0.2637 C   0  0  0  0  0  0  0  0  0  0  0  0
   -3.4122   -0.0075    0.3657 C   0  0  0  0  0  0  0  0  0  0  0  0
   -3.3565   -0.4080    1.7274 C   0  0  0  0  0  0  0  0  0  0  0  0
   -3.2517   -0.7366    2.8354 N   0  0  0  0  0  0  0  0  0  0  0  0
   -2.1354    0.1637   -0.4247 C   0  0  0  0  0  0  0  0  0  0  0  0
   -2.1915    0.5104   -1.6021 O   0  0  0  0  0  0  0  0  0  0  0  0
   -0.9699   -0.0959    0.2774 N   0  0  0  0  0  0  0  0  0  0  0  0
    0.3567   -0.0172   -0.2045 C   0  0  0  0  0  0  0  0  0  0  0  0
    1.3804   -0.3281    0.6956 C   0  0  0  0  0  0  0  0  0  0  0  0
    2.7261   -0.2767    0.3043 C   0  0  0  0  0  0  0  0  0  0  0  0
    3.0896    0.0853   -0.9930 C   0  0  0  0  0  0  0  0  0  0  0  0
    4.4090    0.1560   -1.4460 N   0  0  0  0  0  0  0  0  0  0  0  0
    5.6506   -0.0730   -0.8611 C   0  0  0  0  0  0  0  0  0  0  0  0
    6.7017    0.1168   -1.6789 N   0  0  0  0  0  0  0  0  0  0  0  0
    7.9301   -0.0902   -1.1671 C   0  0  0  0  0  0  0  0  0  0  0  0
    8.1554   -0.4792    0.1279 C   0  0  0  0  0  0  0  0  0  0  0  0
    7.0265   -0.6481    0.8870 C   0  0  0  0  0  0  0  0  0  0  0  0
    5.7793   -0.4532    0.4195 N   0  0  0  0  0  0  0  0  0  0  0  0
    2.0540    0.3949   -1.8866 C   0  0  0  0  0  0  0  0  0  0  0  0
    0.7059    0.3455   -1.5018 C   0  0  0  0  0  0  0  0  0  0  0  0
   -6.7772    1.8408   -0.7634 H   0  0  0  0  0  0  0  0  0  0  0  0
   -6.1057    2.2373    0.8279 H   0  0  0  0  0  0  0  0  0  0  0  0
   -7.6721    1.4232    0.7066 H   0  0  0  0  0  0  0  0  0  0  0  0
   -5.9317   -0.1843    1.3741 H   0  0  0  0  0  0  0  0  0  0  0  0
   -6.2996   -1.9075   -0.3831 H   0  0  0  0  0  0  0  0  0  0  0  0
   -6.8943   -0.6621   -1.4947 H   0  0  0  0  0  0  0  0  0  0  0  0
   -7.7866   -1.0246   -0.0086 H   0  0  0  0  0  0  0  0  0  0  0  0
   -4.5578    0.5363   -1.3119 H   0  0  0  0  0  0  0  0  0  0  0  0
   -1.0374   -0.3767    1.2490 H   0  0  0  0  0  0  0  0  0  0  0  0
    1.1582   -0.6170    1.7199 H   0  0  0  0  0  0  0  0  0  0  0  0
    3.4797   -0.5282    1.0444 H   0  0  0  0  0  0  0  0  0  0  0  0
    4.5518    0.4300   -2.4068 H   0  0  0  0  0  0  0  0  0  0  0  0
    8.7527    0.0728   -1.8570 H   0  0  0  0  0  0  0  0  0  0  0  0
    9.1484   -0.6405    0.5213 H   0  0  0  0  0  0  0  0  0  0  0  0
    7.0875   -0.9548    1.9269 H   0  0  0  0  0  0  0  0  0  0  0  0
    2.2836    0.6832   -2.9102 H   0  0  0  0  0  0  0  0  0  0  0  0
   -0.0381    0.5988   -2.2496 H   0  0  0  0  0  0  0  0  0  0  0  0
  1  2  1  0
  2  3  1  0
  2  4  1  0
  4  5  2  0
  5  6  1  0
  6  7  3  0
  5  8  1  0
  8  9  2  0
  8 10  1  0
 10 11  1  0
 11 12  1  0
 12 13  2  0
 13 14  1  0
 14 15  1  0
 15 16  1  0
 16 17  2  0
 17 18  1  0
 18 19  2  0
 19 20  1  0
 20 21  2  0
 14 22  2  0
 22 23  1  0
 23 11  2  0
 21 16  1  0
  1 24  1  0
  1 25  1  0
  1 26  1  0
  2 27  1  0
  3 28  1  0
  3 29  1  0
  3 30  1  0
  4 31  1  0
 10 32  1  0
 12 33  1  0
 13 34  1  0
 15 35  1  0
 18 36  1  0
 19 37  1  0
 20 38  1  0
 22 39  1  0
 23 40  1  0
M  END
>  <reaction_center_zero_based>  (8) 
3

$$$$
