X77
  CCTOOLS-0919241034

 67 70  0  0  1  0  0  0  0  0999 V2000
   -0.0030   -2.4430   -0.2400 C   0  0  0  0  0
   -0.4810   -0.1640   -0.9600 C   0  0  0  0  0
   -1.5760    0.1200    0.0350 C   0  0  0  0  0
   -3.5960    1.3020    0.7120 C   0  0  0  0  0
   -4.1480    2.7090    0.4750 C   0  0  0  0  0
   -5.2600    2.9980    1.4850 C   0  0  0  0  0
   -6.3840    1.9740    1.3130 C   0  0  0  0  0
   -5.8320    0.5670    1.5510 C   0  0  0  0  0
   -4.7200    0.2780    0.5400 C   0  0  0  0  0
    0.2890    1.1020   -1.2360 C   0  0  0  0  0
    0.2640    1.6770   -2.4970 C   0  0  0  0  0
    0.9870    2.8420   -2.7050 C   0  0  0  0  0
    1.7030    3.3870   -1.6560 C   0  0  0  0  0
    1.0230    1.7070   -0.2330 C   0  0  0  0  0
    1.7360   -0.8300   -0.0680 C   0  0  0  0  0
    2.1190   -0.7980    1.2670 C   0  0  0  0  0
    3.4140   -0.4550    1.6030 C   0  0  0  0  0
    4.3280   -0.1430    0.6130 C   0  0  0  0  0
    5.7400    0.2310    0.9840 C   0  0  0  0  0
    6.3930   -0.9280    1.7400 C   0  0  0  0  0
    6.5400    0.5260   -0.2860 C   0  0  0  0  0
    5.7210    1.4740    1.8750 C   0  0  0  0  0
    3.9500   -0.1750   -0.7160 C   0  0  0  0  0
    2.6580   -0.5220   -1.0600 C   0  0  0  0  0
   -1.4140   -2.7830   -0.4930 C   0  0  0  0  0
   -2.0080   -3.9880   -0.2550 C   0  0  0  0  0
   -3.4880   -2.5990   -1.0870 C   0  0  0  0  0
    0.4260   -1.1770   -0.4120 N   0  0  0  0  0
   -2.5320    1.0250   -0.2550 N   0  0  0  0  0
    1.7040    2.8120   -0.4690 N   0  0  0  0  0
   -3.3090   -3.8660   -0.6290 N   0  0  0  0  0
   -2.3610   -1.9530   -1.0000 N   0  0  0  0  0
    0.7730   -3.3030    0.1290 O   0  0  0  0  0
   -1.5980   -0.4650    1.0970 O   0  0  0  0  0
   -0.9190   -0.5330   -1.8870 H   0  0  0  0  0
   -3.1950    1.2350    1.7240 H   0  0  0  0  0
   -3.3480    3.4390    0.5970 H   0  0  0  0  0
   -4.5490    2.7760   -0.5360 H   0  0  0  0  0
   -4.8590    2.9310    2.4960 H   0  0  0  0  0
   -5.6530    4.0010    1.3160 H   0  0  0  0  0
   -7.1760    2.1800    2.0330 H   0  0  0  0  0
   -6.7850    2.0410    0.3020 H   0  0  0  0  0
   -5.4310    0.5000    2.5620 H   0  0  0  0  0
   -6.6330   -0.1630    1.4280 H   0  0  0  0  0
   -5.1220    0.3450   -0.4710 H   0  0  0  0  0
   -4.3270   -0.7250    0.7100 H   0  0  0  0  0
   -0.3040    1.2290   -3.2980 H   0  0  0  0  0
    0.9910    3.3180   -3.6740 H   0  0  0  0  0
    2.2690    4.2940   -1.8100 H   0  0  0  0  0
    1.0480    1.2650    0.7520 H   0  0  0  0  0
    1.4060   -1.0400    2.0400 H   0  0  0  0  0
    3.7130   -0.4300    2.6410 H   0  0  0  0  0
    6.4070   -1.8140    1.1050 H   0  0  0  0  0
    7.4140   -0.6580    2.0090 H   0  0  0  0  0
    5.8230   -1.1390    2.6450 H   0  0  0  0  0
    6.0750    1.3520   -0.8250 H   0  0  0  0  0
    7.5620    0.7960   -0.0180 H   0  0  0  0  0
    6.5540   -0.3600   -0.9210 H   0  0  0  0  0
    5.1510    1.2640    2.7800 H   0  0  0  0  0
    6.7420    1.7450    2.1440 H   0  0  0  0  0
    5.2560    2.3000    1.3370 H   0  0  0  0  0
    4.6670    0.0650   -1.4870 H   0  0  0  0  0
    2.3630   -0.5470   -2.0990 H   0  0  0  0  0
   -1.5350   -4.8700    0.1520 H   0  0  0  0  0
   -4.4170   -2.1920   -1.4580 H   0  0  0  0  0
   -2.5140    1.4930   -1.1050 H   0  0  0  0  0
   -3.9860   -4.5590   -0.5830 H   0  0  0  0  0
  1 33  2  0  0  0
  1 28  1  0  0  0
  2 10  1  0  0  0
  2  3  1  0  0  0
  2 35  1  0  0  0
  3 29  1  0  0  0
  4  5  1  0  0  0
  4 36  1  0  0  0
  5  6  1  0  0  0
  5 37  1  0  0  0
  5 38  1  0  0  0
  6 39  1  0  0  0
  6 40  1  0  0  0
  7  6  1  0  0  0
  7 41  1  0  0  0
  7 42  1  0  0  0
  8  7  1  0  0  0
  8 43  1  0  0  0
  8 44  1  0  0  0
  9  4  1  0  0  0
  9  8  1  0  0  0
  9 45  1  0  0  0
  9 46  1  0  0  0
 10 11  2  0  0  0
 11 12  1  0  0  0
 11 47  1  0  0  0
 12 48  1  0  0  0
 13 12  2  0  0  0
 13 49  1  0  0  0
 14 30  2  0  0  0
 14 10  1  0  0  0
 14 50  1  0  0  0
 15 28  1  0  0  0
 15 16  2  0  0  0
 16 51  1  0  0  0
 17 16  1  0  0  0
 17 52  1  0  0  0
 18 17  2  0  0  0
 19 18  1  0  0  0
 19 20  1  0  0  0
 20 53  1  0  0  0
 20 54  1  0  0  0
 20 55  1  0  0  0
 21 19  1  0  0  0
 21 56  1  0  0  0
 21 57  1  0  0  0
 21 58  1  0  0  0
 22 19  1  0  0  0
 22 59  1  0  0  0
 22 60  1  0  0  0
 22 61  1  0  0  0
 23 24  2  0  0  0
 23 18  1  0  0  0
 23 62  1  0  0  0
 24 15  1  0  0  0
 24 63  1  0  0  0
 25  1  1  0  0  0
 26 25  2  0  0  0
 26 64  1  0  0  0
 27 31  1  0  0  0
 27 32  2  0  0  0
 27 65  1  0  0  0
 28  2  1  0  0  0
 29  4  1  0  0  0
 29 66  1  0  0  0
 30 13  1  0  0  0
 31 26  1  0  0  0
 31 67  1  0  0  0
 32 25  1  0  0  0
 34  3  2  0  0  0
M  END
$$$$
