Gd30e711e2851
     RDKit          3D

 12 12  0  0  0  0  0  0  0  0999 V2000
    5.5659   -0.6513   18.6436 C   0  0  0  0  0  0  0  0  0  0  0  0
    5.0374   -1.2324   19.7431 N   0  0  0  0  0  0  0  0  0  0  0  0
    5.0681   -2.5816   19.7323 C   0  0  0  0  0  0  0  0  0  0  0  0
    5.5963   -3.3198   18.6951 C   0  0  0  0  0  0  0  0  0  0  0  0
    6.1136   -2.6118   17.6306 C   0  0  0  0  0  0  0  0  0  0  0  0
    6.1233   -1.2622   17.5656 N   0  0  0  0  0  0  0  0  0  0  0  0
    5.5594    1.1586   18.5993 S   0  0  0  0  0  0  0  0  0  0  0  0
    4.2966    1.5730   18.0211 O   0  0  0  0  0  0  0  0  0  0  0  0
    6.0324    1.6661   19.8719 O   0  0  0  0  0  0  0  0  0  0  0  0
    6.7613    1.5379   17.4301 N   0  0  0  0  0  0  0  0  0  0  0  0
    8.1514    1.3636   17.8722 C   0  0  0  0  0  0  0  0  0  0  0  0
    5.6099   -4.6563   18.7198 F   0  0  0  0  0  0  0  0  0  0  0  0
  1  2  1  0
  2  3  2  0
  3  4  1  0
  4  5  2  0
  5  6  1  0
  6  1  2  0
  7  8  2  0
  7  9  2  0
  7 10  1  0
 10 11  1  0
  1  7  1  0
  4 12  1  0
M  END
>  <canonical_smiles>  (1) 
CNS(=O)(=O)c1ncc(F)cn1

>  <geometry_score>  (1) 
20.669833162550738

>  <evidence>  (1) 
generated graph and model pose, not experimentally validated

$$$$
Geee78afb54bb
     RDKit          3D

 18 20  0  0  0  0  0  0  0  0999 V2000
    7.5807    0.0394   19.7878 C   0  0  0  0  0  0  0  0  0  0  0  0
    6.8673    0.2376   20.9789 C   0  0  0  0  0  0  0  0  0  0  0  0
    7.5313    0.4127   22.1995 C   0  0  0  0  0  0  0  0  0  0  0  0
    8.9319    0.3956   22.2716 C   0  0  0  0  0  0  0  0  0  0  0  0
    9.6452    0.1974   21.0804 C   0  0  0  0  0  0  0  0  0  0  0  0
    8.9812    0.0223   19.8598 C   0  0  0  0  0  0  0  0  0  0  0  0
    6.8827   -0.1446   18.5048 C   0  0  0  0  0  0  0  0  0  0  0  0
    7.1485   -1.2570   17.6888 C   0  0  0  0  0  0  0  0  0  0  0  0
    6.4859   -1.4329   16.4708 C   0  0  0  0  0  0  0  0  0  0  0  0
    5.5458   -0.4971   16.0472 C   0  0  0  0  0  0  0  0  0  0  0  0
    5.2675    0.6132   16.8401 C   0  0  0  0  0  0  0  0  0  0  0  0
    5.9302    0.7867   18.0584 C   0  0  0  0  0  0  0  0  0  0  0  0
    9.6298    0.5797   23.5546 C   0  0  0  0  0  0  0  0  0  0  0  0
   10.5823   -0.3517   24.0010 C   0  0  0  0  0  0  0  0  0  0  0  0
   11.2450   -0.1781   25.2192 C   0  0  0  0  0  0  0  0  0  0  0  0
   10.9667    0.9321   26.0122 C   0  0  0  0  0  0  0  0  0  0  0  0
   10.0266    1.8679   25.5886 C   0  0  0  0  0  0  0  0  0  0  0  0
    9.3641    1.6921   24.3706 C   0  0  0  0  0  0  0  0  0  0  0  0
  1  2  1  0
  2  3  2  0
  3  4  1  0
  4  5  2  0
  5  6  1  0
  6  1  2  0
  7  8  2  0
  8  9  1  0
  9 10  2  0
 10 11  1  0
 11 12  2  0
 12  7  1  0
  1  7  1  0
 13 14  2  0
 14 15  1  0
 15 16  2  0
 16 17  1  0
 17 18  2  0
 18 13  1  0
  4 13  1  0
M  END
>  <canonical_smiles>  (2) 
c1ccc(-c2ccc(-c3ccccc3)cc2)cc1

>  <geometry_score>  (2) 
10.133273948084666

>  <evidence>  (2) 
generated graph and model pose, not experimentally validated

$$$$
Gcc601569829e
     RDKit          3D

 12 13  0  0  0  0  0  0  0  0999 V2000
    5.8999   -1.6403   19.5286 C   0  0  0  0  0  0  0  0  0  0  0  0
    5.5815   -2.8817   19.0231 C   0  0  0  0  0  0  0  0  0  0  0  0
    5.5700   -3.7531   20.1315 C   0  0  0  0  0  0  0  0  0  0  0  0
    5.8652   -3.0048   21.2415 C   0  0  0  0  0  0  0  0  0  0  0  0
    6.0730   -1.7096   20.8792 O   0  0  0  0  0  0  0  0  0  0  0  0
    6.0719   -0.3953   18.9914 N   0  0  0  0  0  0  0  0  0  0  0  0
    5.9381   -0.1343   17.6461 C   0  0  0  0  0  0  0  0  0  0  0  0
    5.6710   -0.9467   16.7665 O   0  0  0  0  0  0  0  0  0  0  0  0
    6.1894    1.3153   17.3192 C   0  0  0  0  0  0  0  0  0  0  0  0
    5.2528   -5.2598   20.1054 C   0  0  0  0  0  0  0  0  0  0  0  0
    6.0200   -6.1560   19.1686 C   0  0  0  0  0  0  0  0  0  0  0  0
    6.2656   -6.2349   20.6465 C   0  0  0  0  0  0  0  0  0  0  0  0
  1  2  2  0
  2  3  1  0
  3  4  2  0
  4  5  1  0
  5  1  1  0
  6  7  1  0
  7  8  2  0
  7  9  1  0
  1  6  1  0
 10 11  1  0
 11 12  1  0
 12 10  1  0
  3 10  1  0
M  END
>  <canonical_smiles>  (3) 
CC(=O)Nc1cc(C2CC2)co1

>  <geometry_score>  (3) 
19.882249770700152

>  <evidence>  (3) 
generated graph and model pose, not experimentally validated

$$$$
Gf564492353cd
     RDKit          3D

 20 22  0  0  0  0  0  0  0  0999 V2000
    7.4765    0.4977   20.3073 C   0  0  0  0  0  0  0  0  0  0  0  0
    7.4143    1.1124   19.0682 C   0  0  0  0  0  0  0  0  0  0  0  0
    6.0953    1.1691   18.5251 C   0  0  0  0  0  0  0  0  0  0  0  0
    5.1908    0.5867   19.3869 C   0  0  0  0  0  0  0  0  0  0  0  0
    5.9217   -0.0127   20.8112 S   0  0  0  0  0  0  0  0  0  0  0  0
    8.6801    0.2905   21.1141 C   0  0  0  0  0  0  0  0  0  0  0  0
    9.7793    0.6668   20.7172 O   0  0  0  0  0  0  0  0  0  0  0  0
    8.4595   -0.3492   22.3229 N   0  0  0  0  0  0  0  0  0  0  0  0
    9.3952   -0.6936   23.3176 C   0  0  0  0  0  0  0  0  0  0  0  0
   10.7630   -0.4287   23.2348 C   0  0  0  0  0  0  0  0  0  0  0  0
   11.6225   -0.8068   24.2720 C   0  0  0  0  0  0  0  0  0  0  0  0
   11.1221   -1.4525   25.3999 C   0  0  0  0  0  0  0  0  0  0  0  0
    9.7599   -1.7217   25.4930 C   0  0  0  0  0  0  0  0  0  0  0  0
    8.9015   -1.3440   24.4570 C   0  0  0  0  0  0  0  0  0  0  0  0
    5.7751    1.7231   17.3189 N   0  0  0  0  0  0  0  0  0  0  0  0
    4.3875    2.0221   16.9247 C   0  0  0  0  0  0  0  0  0  0  0  0
    4.3564    3.1836   15.9180 C   0  0  0  0  0  0  0  0  0  0  0  0
    5.0893    2.9278   14.7123 O   0  0  0  0  0  0  0  0  0  0  0  0
    6.1952    2.0343   14.9021 C   0  0  0  0  0  0  0  0  0  0  0  0
    6.7973    2.0736   16.3164 C   0  0  0  0  0  0  0  0  0  0  0  0
  1  2  2  0
  2  3  1  0
  3  4  2  0
  4  5  1  0
  5  1  1  0
  6  7  2  0
  6  8  1  0
  8  9  1  0
  9 10  2  0
 10 11  1  0
 11 12  2  0
 12 13  1  0
 13 14  2  0
 14  9  1  0
  1  6  1  0
 15 16  1  0
 16 17  1  0
 17 18  1  0
 18 19  1  0
 19 20  1  0
 20 15  1  0
  3 15  1  0
M  END
>  <canonical_smiles>  (4) 
O=C(Nc1ccccc1)c1cc(N2CCOCC2)cs1

>  <geometry_score>  (4) 
7.117272614275799

>  <evidence>  (4) 
generated graph and model pose, not experimentally validated

$$$$
Gc1d2e0be7913
     RDKit          3D

 20 22  0  0  0  0  0  0  0  0999 V2000
   10.6557    0.0159   22.0977 C   0  0  0  0  0  0  0  0  0  0  0  0
   11.1712    1.0209   22.9102 C   0  0  0  0  0  0  0  0  0  0  0  0
   10.5372    2.2462   22.8861 C   0  0  0  0  0  0  0  0  0  0  0  0
    9.4525    2.5161   22.1287 N   0  0  0  0  0  0  0  0  0  0  0  0
    8.9332    1.5236   21.3597 C   0  0  0  0  0  0  0  0  0  0  0  0
    9.5189    0.2632   21.3226 C   0  0  0  0  0  0  0  0  0  0  0  0
   11.2530   -1.3434   22.0452 C   0  0  0  0  0  0  0  0  0  0  0  0
   10.5437   -2.3078   21.7824 O   0  0  0  0  0  0  0  0  0  0  0  0
   12.6095   -1.4324   22.2756 N   0  0  0  0  0  0  0  0  0  0  0  0
   13.2874   -2.7110   22.2750 C   0  0  0  0  0  0  0  0  0  0  0  0
   14.8024   -2.5735   22.1832 C   0  0  0  0  0  0  0  0  0  0  0  0
   15.3006   -3.9422   22.6209 C   0  0  0  0  0  0  0  0  0  0  0  0
   14.3008   -4.4189   23.6733 C   0  0  0  0  0  0  0  0  0  0  0  0
   13.0969   -3.4820   23.5803 C   0  0  0  0  0  0  0  0  0  0  0  0
    7.7313    1.8830   20.5776 C   0  0  0  0  0  0  0  0  0  0  0  0
    6.7714    0.9357   20.1926 C   0  0  0  0  0  0  0  0  0  0  0  0
    5.6674    1.3434   19.4566 C   0  0  0  0  0  0  0  0  0  0  0  0
    5.4453    2.6169   19.0769 N   0  0  0  0  0  0  0  0  0  0  0  0
    6.3643    3.5253   19.4596 C   0  0  0  0  0  0  0  0  0  0  0  0
    7.4969    3.2125   20.1951 C   0  0  0  0  0  0  0  0  0  0  0  0
  1  2  1  0
  2  3  2  0
  3  4  1  0
  4  5  2  0
  5  6  1  0
  6  1  2  0
  7  8  2  0
  7  9  1  0
  9 10  1  0
 10 11  1  0
 11 12  1  0
 12 13  1  0
 13 14  1  0
 14 10  1  0
  1  7  1  0
 15 16  1  0
 16 17  2  0
 17 18  1  0
 18 19  2  0
 19 20  1  0
 20 15  2  0
  5 15  1  0
M  END
>  <canonical_smiles>  (5) 
O=C(NC1CCCC1)c1ccnc(-c2ccncc2)c1

>  <geometry_score>  (5) 
3.730148376730874

>  <evidence>  (5) 
generated graph and model pose, not experimentally validated

$$$$
G191c9495c47a
     RDKit          3D

 14 15  0  0  0  0  0  0  0  0999 V2000
    8.7154   -0.0676   19.9125 C   0  0  0  0  0  0  0  0  0  0  0  0
    9.2814   -1.2864   20.0066 N   0  0  0  0  0  0  0  0  0  0  0  0
   10.2320   -1.4361   20.9555 C   0  0  0  0  0  0  0  0  0  0  0  0
   10.6444   -0.4371   21.8109 C   0  0  0  0  0  0  0  0  0  0  0  0
   10.0008    0.7663   21.6278 C   0  0  0  0  0  0  0  0  0  0  0  0
    9.0424    0.9798   20.6971 N   0  0  0  0  0  0  0  0  0  0  0  0
    7.6741    0.1341   18.8887 C   0  0  0  0  0  0  0  0  0  0  0  0
    7.2756   -0.9034   18.0321 C   0  0  0  0  0  0  0  0  0  0  0  0
    6.2921   -0.6673   17.0842 C   0  0  0  0  0  0  0  0  0  0  0  0
    5.6755    0.5205   16.9233 N   0  0  0  0  0  0  0  0  0  0  0  0
    6.0611    1.5143   17.7480 C   0  0  0  0  0  0  0  0  0  0  0  0
    7.0346    1.3723   18.7246 C   0  0  0  0  0  0  0  0  0  0  0  0
   11.6126   -0.7438   22.7130 O   0  0  0  0  0  0  0  0  0  0  0  0
   12.0215    0.3043   23.5852 C   0  0  0  0  0  0  0  0  0  0  0  0
  1  2  1  0
  2  3  2  0
  3  4  1  0
  4  5  2  0
  5  6  1  0
  6  1  2  0
  7  8  1  0
  8  9  2  0
  9 10  1  0
 10 11  2  0
 11 12  1  0
 12  7  2  0
  1  7  1  0
 13 14  1  0
  4 13  1  0
M  END
>  <canonical_smiles>  (6) 
COc1cnc(-c2ccncc2)nc1

>  <geometry_score>  (6) 
17.602734369302443

>  <evidence>  (6) 
generated graph and model pose, not experimentally validated

$$$$
Gfc6d935a7520
     RDKit          3D

 13 14  0  0  0  0  0  0  0  0999 V2000
    9.4542    0.3450   21.5649 C   0  0  0  0  0  0  0  0  0  0  0  0
    9.4255   -0.4413   20.3999 C   0  0  0  0  0  0  0  0  0  0  0  0
    8.2468   -0.5972   19.6635 C   0  0  0  0  0  0  0  0  0  0  0  0
    7.0803    0.0344   20.0847 C   0  0  0  0  0  0  0  0  0  0  0  0
    7.0821    0.8189   21.2345 C   0  0  0  0  0  0  0  0  0  0  0  0
    8.2624    0.9716   21.9689 C   0  0  0  0  0  0  0  0  0  0  0  0
   10.6958    0.5074   22.3390 C   0  0  0  0  0  0  0  0  0  0  0  0
   10.7344    0.2210   23.7140 C   0  0  0  0  0  0  0  0  0  0  0  0
   11.9129    0.3744   24.4495 C   0  0  0  0  0  0  0  0  0  0  0  0
   13.0737    0.8184   23.8217 C   0  0  0  0  0  0  0  0  0  0  0  0
   13.0574    1.1085   22.4600 C   0  0  0  0  0  0  0  0  0  0  0  0
   11.8784    0.9535   21.7256 C   0  0  0  0  0  0  0  0  0  0  0  0
    5.6295   -0.1553   19.1801 Cl  0  0  0  0  0  0  0  0  0  0  0  0
  1  2  1  0
  2  3  2  0
  3  4  1  0
  4  5  2  0
  5  6  1  0
  6  1  2  0
  7  8  2  0
  8  9  1  0
  9 10  2  0
 10 11  1  0
 11 12  2  0
 12  7  1  0
  1  7  1  0
  4 13  1  0
M  END
>  <canonical_smiles>  (7) 
Clc1ccc(-c2ccccc2)cc1

>  <geometry_score>  (7) 
12.192881000744618

>  <evidence>  (7) 
generated graph and model pose, not experimentally validated

$$$$
G9befda2b08e7
     RDKit          3D

 18 20  0  0  0  0  0  0  0  0999 V2000
    8.0971   -3.7531   22.7716 C   0  0  0  0  0  0  0  0  0  0  0  0
    9.2657   -3.1213   22.3071 C   0  0  0  0  0  0  0  0  0  0  0  0
    9.9497   -2.1589   23.0730 C   0  0  0  0  0  0  0  0  0  0  0  0
    9.4334   -1.8331   24.3359 C   0  0  0  0  0  0  0  0  0  0  0  0
    8.2769   -2.4469   24.8174 C   0  0  0  0  0  0  0  0  0  0  0  0
    7.6161   -3.3986   24.0407 C   0  0  0  0  0  0  0  0  0  0  0  0
    7.3992   -4.7548   21.9482 C   0  0  0  0  0  0  0  0  0  0  0  0
    7.0085   -4.4639   20.6304 C   0  0  0  0  0  0  0  0  0  0  0  0
    6.3460   -5.4139   19.8481 C   0  0  0  0  0  0  0  0  0  0  0  0
    6.0636   -6.6731   20.3710 C   0  0  0  0  0  0  0  0  0  0  0  0
    6.4425   -6.9828   21.6747 C   0  0  0  0  0  0  0  0  0  0  0  0
    7.1040   -6.0312   22.4559 C   0  0  0  0  0  0  0  0  0  0  0  0
   11.1723   -1.5151   22.5641 C   0  0  0  0  0  0  0  0  0  0  0  0
   12.2600   -2.2814   22.1126 C   0  0  0  0  0  0  0  0  0  0  0  0
   13.4209   -1.6713   21.6294 C   0  0  0  0  0  0  0  0  0  0  0  0
   13.5134   -0.2826   21.5886 C   0  0  0  0  0  0  0  0  0  0  0  0
   12.4469    0.4961   22.0305 C   0  0  0  0  0  0  0  0  0  0  0  0
   11.2871   -0.1157   22.5144 C   0  0  0  0  0  0  0  0  0  0  0  0
  1  2  2  0
  2  3  1  0
  3  4  2  0
  4  5  1  0
  5  6  2  0
  6  1  1  0
  7  8  2  0
  8  9  1  0
  9 10  2  0
 10 11  1  0
 11 12  2  0
 12  7  1  0
  1  7  1  0
 13 14  2  0
 14 15  1  0
 15 16  2  0
 16 17  1  0
 17 18  2  0
 18 13  1  0
  3 13  1  0
M  END
>  <canonical_smiles>  (8) 
c1ccc(-c2cccc(-c3ccccc3)c2)cc1

>  <geometry_score>  (8) 
12.356794772879939

>  <evidence>  (8) 
generated graph and model pose, not experimentally validated

$$$$
Gad5c0180e36a
     RDKit          3D

 17 18  0  0  0  0  0  0  0  0999 V2000
    9.0171   -0.9965   21.5866 C   0  0  0  0  0  0  0  0  0  0  0  0
    8.9848   -0.6935   20.2222 C   0  0  0  0  0  0  0  0  0  0  0  0
    8.0743    0.2528   19.7379 C   0  0  0  0  0  0  0  0  0  0  0  0
    7.1860    0.8837   20.6111 C   0  0  0  0  0  0  0  0  0  0  0  0
    7.2160    0.5595   21.9723 C   0  0  0  0  0  0  0  0  0  0  0  0
    8.1195   -0.3854   22.4625 C   0  0  0  0  0  0  0  0  0  0  0  0
    9.9597   -2.0053   22.1178 C   0  0  0  0  0  0  0  0  0  0  0  0
    9.4931   -2.9642   22.7272 O   0  0  0  0  0  0  0  0  0  0  0  0
   11.3203   -1.8224   21.9120 N   0  0  0  0  0  0  0  0  0  0  0  0
   11.9515   -0.5967   21.4090 C   0  0  0  0  0  0  0  0  0  0  0  0
   13.3669   -0.4389   21.9742 C   0  0  0  0  0  0  0  0  0  0  0  0
   14.2307   -1.5391   21.6579 O   0  0  0  0  0  0  0  0  0  0  0  0
   13.5560   -2.8028   21.5542 C   0  0  0  0  0  0  0  0  0  0  0  0
   12.2442   -2.8730   22.3396 C   0  0  0  0  0  0  0  0  0  0  0  0
    6.2562    1.8275   20.2778 O   0  0  0  0  0  0  0  0  0  0  0  0
    6.0107    2.0990   18.8990 C   0  0  0  0  0  0  0  0  0  0  0  0
    6.9128    3.2152   18.4021 C   0  0  0  0  0  0  0  0  0  0  0  0
  1  2  1  0
  2  3  2  0
  3  4  1  0
  4  5  2  0
  5  6  1  0
  6  1  2  0
  7  8  2  0
  7  9  1  0
  9 10  1  0
 10 11  1  0
 11 12  1  0
 12 13  1  0
 13 14  1  0
 14  9  1  0
  1  7  1  0
 15 16  1  0
 16 17  1  0
  4 15  1  0
M  END
>  <canonical_smiles>  (9) 
CCOc1ccc(C(=O)N2CCOCC2)cc1

>  <geometry_score>  (9) 
7.116177589183039

>  <evidence>  (9) 
generated graph and model pose, not experimentally validated

$$$$
G22ba5a08d1e8
     RDKit          3D

 15 16  0  0  0  0  0  0  0  0999 V2000
    5.8276   -2.3281   18.9767 C   0  0  0  0  0  0  0  0  0  0  0  0
    5.6433   -0.9700   19.1516 C   0  0  0  0  0  0  0  0  0  0  0  0
    6.0989   -0.3240   17.9626 C   0  0  0  0  0  0  0  0  0  0  0  0
    6.5316   -1.3436   17.1421 C   0  0  0  0  0  0  0  0  0  0  0  0
    6.3724   -2.5485   17.7425 O   0  0  0  0  0  0  0  0  0  0  0  0
    5.5737   -3.5112   19.7947 C   0  0  0  0  0  0  0  0  0  0  0  0
    5.0182   -3.3910   21.0718 C   0  0  0  0  0  0  0  0  0  0  0  0
    4.7936   -4.5400   21.8146 C   0  0  0  0  0  0  0  0  0  0  0  0
    5.0800   -5.7835   21.3797 N   0  0  0  0  0  0  0  0  0  0  0  0
    5.6153   -5.8830   20.1459 C   0  0  0  0  0  0  0  0  0  0  0  0
    5.8762   -4.7945   19.3293 C   0  0  0  0  0  0  0  0  0  0  0  0
    6.1127    1.1239   17.6570 C   0  0  0  0  0  0  0  0  0  0  0  0
    7.3698    1.5781   17.4236 F   0  0  0  0  0  0  0  0  0  0  0  0
    5.3768    1.4139   16.5546 F   0  0  0  0  0  0  0  0  0  0  0  0
    5.6077    1.8675   18.6747 F   0  0  0  0  0  0  0  0  0  0  0  0
  1  2  2  0
  2  3  1  0
  3  4  2  0
  4  5  1  0
  5  1  1  0
  6  7  1  0
  7  8  2  0
  8  9  1  0
  9 10  2  0
 10 11  1  0
 11  6  2  0
  1  6  1  0
 12 13  1  0
 12 14  1  0
 12 15  1  0
  3 12  1  0
M  END
>  <canonical_smiles>  (10) 
FC(F)(F)c1coc(-c2ccncc2)c1

>  <geometry_score>  (10) 
19.943935167998664

>  <evidence>  (10) 
generated graph and model pose, not experimentally validated

$$$$
Gda82b0828f9f
     RDKit          3D

 13 14  0  0  0  0  0  0  0  0999 V2000
    7.1273    0.1906   19.3179 C   0  0  0  0  0  0  0  0  0  0  0  0
    5.8246    0.7112   19.2715 C   0  0  0  0  0  0  0  0  0  0  0  0
    5.3363    1.3366   18.1195 C   0  0  0  0  0  0  0  0  0  0  0  0
    6.1443    1.4651   16.9860 C   0  0  0  0  0  0  0  0  0  0  0  0
    7.4382    0.9368   17.0149 C   0  0  0  0  0  0  0  0  0  0  0  0
    7.9241    0.3132   18.1688 C   0  0  0  0  0  0  0  0  0  0  0  0
    7.6403   -0.4667   20.5313 C   0  0  0  0  0  0  0  0  0  0  0  0
    8.8445   -0.0527   21.1249 C   0  0  0  0  0  0  0  0  0  0  0  0
    9.3323   -0.6756   22.2771 C   0  0  0  0  0  0  0  0  0  0  0  0
    8.6234   -1.7255   22.8552 C   0  0  0  0  0  0  0  0  0  0  0  0
    7.4279   -2.1523   22.2828 C   0  0  0  0  0  0  0  0  0  0  0  0
    6.9411   -1.5274   21.1313 C   0  0  0  0  0  0  0  0  0  0  0  0
    5.6105    2.1045   15.7389 C   0  0  0  0  0  0  0  0  0  0  0  0
  1  2  1  0
  2  3  2  0
  3  4  1  0
  4  5  2  0
  5  6  1  0
  6  1  2  0
  7  8  2  0
  8  9  1  0
  9 10  2  0
 10 11  1  0
 11 12  2  0
 12  7  1  0
  1  7  1  0
  4 13  1  0
M  END
>  <canonical_smiles>  (11) 
Cc1ccc(-c2ccccc2)cc1

>  <geometry_score>  (11) 
13.57944592043475

>  <evidence>  (11) 
generated graph and model pose, not experimentally validated

$$$$
G2d0a3c65af3a
     RDKit          3D

 21 23  0  0  0  0  0  0  0  0999 V2000
    7.8969   -2.1530   21.5087 C   0  0  0  0  0  0  0  0  0  0  0  0
    8.2966   -3.6293   21.5971 C   0  0  0  0  0  0  0  0  0  0  0  0
    9.2754   -3.8693   22.7407 C   0  0  0  0  0  0  0  0  0  0  0  0
    8.7278   -3.3453   23.9972 N   0  0  0  0  0  0  0  0  0  0  0  0
    8.2855   -1.9522   23.9972 C   0  0  0  0  0  0  0  0  0  0  0  0
    7.3102   -1.7004   22.8498 C   0  0  0  0  0  0  0  0  0  0  0  0
    6.8935   -1.9177   20.3786 C   0  0  0  0  0  0  0  0  0  0  0  0
    6.3259   -2.8473   19.8160 O   0  0  0  0  0  0  0  0  0  0  0  0
    6.7374   -0.5701   20.0914 N   0  0  0  0  0  0  0  0  0  0  0  0
    5.8868    0.0131   19.1289 C   0  0  0  0  0  0  0  0  0  0  0  0
    5.0279   -0.7110   18.3007 C   0  0  0  0  0  0  0  0  0  0  0  0
    4.2148   -0.0522   17.3722 C   0  0  0  0  0  0  0  0  0  0  0  0
    4.2530    1.3357   17.2642 C   0  0  0  0  0  0  0  0  0  0  0  0
    5.1049    2.0680   18.0856 C   0  0  0  0  0  0  0  0  0  0  0  0
    5.9171    1.4098   19.0132 C   0  0  0  0  0  0  0  0  0  0  0  0
    9.1997   -3.9160   25.1795 C   0  0  0  0  0  0  0  0  0  0  0  0
    9.7483   -3.1538   26.2222 C   0  0  0  0  0  0  0  0  0  0  0  0
   10.2140   -3.7494   27.4007 C   0  0  0  0  0  0  0  0  0  0  0  0
   10.1339   -5.1278   27.5655 C   0  0  0  0  0  0  0  0  0  0  0  0
    9.5857   -5.9071   26.5535 C   0  0  0  0  0  0  0  0  0  0  0  0
    9.1245   -5.3042   25.3782 C   0  0  0  0  0  0  0  0  0  0  0  0
  1  2  1  0
  2  3  1  0
  3  4  1  0
  4  5  1  0
  5  6  1  0
  6  1  1  0
  7  8  2  0
  7  9  1  0
  9 10  1  0
 10 11  2  0
 11 12  1  0
 12 13  2  0
 13 14  1  0
 14 15  2  0
 15 10  1  0
  1  7  1  0
 16 17  2  0
 17 18  1  0
 18 19  2  0
 19 20  1  0
 20 21  2  0
 21 16  1  0
  4 16  1  0
M  END
>  <canonical_smiles>  (12) 
O=C(Nc1ccccc1)C1CCN(c2ccccc2)CC1

>  <geometry_score>  (12) 
10.026210114743128

>  <evidence>  (12) 
generated graph and model pose, not experimentally validated

$$$$
Gee92616c2c03
     RDKit          3D

 13 14  0  0  0  0  0  0  0  0999 V2000
    5.5020   -2.8958   19.7557 C   0  0  0  0  0  0  0  0  0  0  0  0
    5.5176   -2.6788   18.4222 N   0  0  0  0  0  0  0  0  0  0  0  0
    5.4627   -1.3906   18.0149 C   0  0  0  0  0  0  0  0  0  0  0  0
    5.3936   -0.3216   18.8757 C   0  0  0  0  0  0  0  0  0  0  0  0
    5.3830   -0.6429   20.2117 C   0  0  0  0  0  0  0  0  0  0  0  0
    5.4357   -1.9109   20.6783 N   0  0  0  0  0  0  0  0  0  0  0  0
    5.5608   -4.2925   20.2332 C   0  0  0  0  0  0  0  0  0  0  0  0
    5.5489   -4.6021   21.6076 C   0  0  0  0  0  0  0  0  0  0  0  0
    5.6045   -5.9241   22.0619 C   0  0  0  0  0  0  0  0  0  0  0  0
    5.6736   -6.9719   21.1493 C   0  0  0  0  0  0  0  0  0  0  0  0
    5.6871   -6.6990   19.7851 C   0  0  0  0  0  0  0  0  0  0  0  0
    5.6313   -5.3756   19.3350 C   0  0  0  0  0  0  0  0  0  0  0  0
    5.3255    1.2940   18.3233 Cl  0  0  0  0  0  0  0  0  0  0  0  0
  1  2  1  0
  2  3  2  0
  3  4  1  0
  4  5  2  0
  5  6  1  0
  6  1  2  0
  7  8  2  0
  8  9  1  0
  9 10  2  0
 10 11  1  0
 11 12  2  0
 12  7  1  0
  1  7  1  0
  4 13  1  0
M  END
>  <canonical_smiles>  (13) 
Clc1cnc(-c2ccccc2)nc1

>  <geometry_score>  (13) 
18.551347933367676

>  <evidence>  (13) 
generated graph and model pose, not experimentally validated

$$$$
Gc02d8e978085
     RDKit          3D

 15 16  0  0  0  0  0  0  0  0999 V2000
    6.1243   -3.2375   21.2362 C   0  0  0  0  0  0  0  0  0  0  0  0
    5.5342   -4.4725   21.0822 C   0  0  0  0  0  0  0  0  0  0  0  0
    5.7406   -5.1617   22.2981 C   0  0  0  0  0  0  0  0  0  0  0  0
    6.4406   -4.3092   23.1158 C   0  0  0  0  0  0  0  0  0  0  0  0
    6.6790   -3.1331   22.4761 O   0  0  0  0  0  0  0  0  0  0  0  0
    6.2738   -2.1271   20.4486 N   0  0  0  0  0  0  0  0  0  0  0  0
    5.7766   -2.0535   19.1641 C   0  0  0  0  0  0  0  0  0  0  0  0
    5.1604   -2.9542   18.6002 O   0  0  0  0  0  0  0  0  0  0  0  0
    6.0122   -0.7773   18.4141 C   0  0  0  0  0  0  0  0  0  0  0  0
    5.5114   -0.6949   17.1097 C   0  0  0  0  0  0  0  0  0  0  0  0
    5.7128    0.4697   16.3922 C   0  0  0  0  0  0  0  0  0  0  0  0
    6.3698    1.5407   16.8805 N   0  0  0  0  0  0  0  0  0  0  0  0
    6.8452    1.4438   18.1383 C   0  0  0  0  0  0  0  0  0  0  0  0
    6.6961    0.3218   18.9389 C   0  0  0  0  0  0  0  0  0  0  0  0
    5.2144   -6.7329   22.6478 Cl  0  0  0  0  0  0  0  0  0  0  0  0
  1  2  2  0
  2  3  1  0
  3  4  2  0
  4  5  1  0
  5  1  1  0
  6  7  1  0
  7  8  2  0
  7  9  1  0
  9 10  1  0
 10 11  2  0
 11 12  1  0
 12 13  2  0
 13 14  1  0
 14  9  2  0
  1  6  1  0
  3 15  1  0
M  END
>  <canonical_smiles>  (14) 
O=C(Nc1cc(Cl)co1)c1ccncc1

>  <geometry_score>  (14) 
19.873175114661247

>  <evidence>  (14) 
generated graph and model pose, not experimentally validated

$$$$
Gba525cdaf090
     RDKit          3D

 15 15  0  0  0  0  0  0  0  0999 V2000
    6.0485   -1.3849   18.9254 C   0  0  0  0  0  0  0  0  0  0  0  0
    5.6608   -1.3540   20.2697 C   0  0  0  0  0  0  0  0  0  0  0  0
    5.4979   -2.5506   20.9761 C   0  0  0  0  0  0  0  0  0  0  0  0
    5.7354   -3.7846   20.3540 C   0  0  0  0  0  0  0  0  0  0  0  0
    6.1265   -3.8139   19.0103 C   0  0  0  0  0  0  0  0  0  0  0  0
    6.2895   -2.6174   18.3032 C   0  0  0  0  0  0  0  0  0  0  0  0
    6.2401   -0.1442   18.1263 C   0  0  0  0  0  0  0  0  0  0  0  0
    7.0164   -0.1339   17.1767 O   0  0  0  0  0  0  0  0  0  0  0  0
    5.4758    0.9466   18.4754 N   0  0  0  0  0  0  0  0  0  0  0  0
    5.6157    2.2400   17.8189 C   0  0  0  0  0  0  0  0  0  0  0  0
    5.1002    2.2443   16.3752 C   0  0  0  0  0  0  0  0  0  0  0  0
    6.0598    1.7180   15.4640 O   0  0  0  0  0  0  0  0  0  0  0  0
    5.5409   -5.0211   21.1585 C   0  0  0  0  0  0  0  0  0  0  0  0
    4.8553   -5.0189   22.1734 O   0  0  0  0  0  0  0  0  0  0  0  0
    6.1749   -6.1586   20.7467 N   0  0  0  0  0  0  0  0  0  0  0  0
  1  2  1  0
  2  3  2  0
  3  4  1  0
  4  5  2  0
  5  6  1  0
  6  1  2  0
  7  8  2  0
  7  9  1  0
  9 10  1  0
 10 11  1  0
 11 12  1  0
  1  7  1  0
 13 14  2  0
 13 15  1  0
  4 13  1  0
M  END
>  <canonical_smiles>  (15) 
NC(=O)c1ccc(C(=O)NCCO)cc1

>  <geometry_score>  (15) 
19.152009852172963

>  <evidence>  (15) 
generated graph and model pose, not experimentally validated

$$$$
Gd477ee8f0923
     RDKit          3D

 16 17  0  0  0  0  0  0  0  0999 V2000
    6.2913   -0.9977   18.6565 C   0  0  0  0  0  0  0  0  0  0  0  0
    7.5741   -0.7952   18.1329 C   0  0  0  0  0  0  0  0  0  0  0  0
    7.8975    0.4239   17.5304 C   0  0  0  0  0  0  0  0  0  0  0  0
    6.9476    1.4499   17.4462 C   0  0  0  0  0  0  0  0  0  0  0  0
    5.6568    1.2288   17.9423 C   0  0  0  0  0  0  0  0  0  0  0  0
    5.3293    0.0116   18.5437 C   0  0  0  0  0  0  0  0  0  0  0  0
    5.9039   -2.2819   19.3060 C   0  0  0  0  0  0  0  0  0  0  0  0
    4.7615   -2.6925   19.1430 O   0  0  0  0  0  0  0  0  0  0  0  0
    6.8968   -2.8630   20.0740 N   0  0  0  0  0  0  0  0  0  0  0  0
    6.8416   -4.0968   20.7558 C   0  0  0  0  0  0  0  0  0  0  0  0
    5.7570   -4.9733   20.6978 C   0  0  0  0  0  0  0  0  0  0  0  0
    5.7841   -6.1827   21.4003 C   0  0  0  0  0  0  0  0  0  0  0  0
    6.8963   -6.5265   22.1648 C   0  0  0  0  0  0  0  0  0  0  0  0
    7.9847   -5.6611   22.2275 C   0  0  0  0  0  0  0  0  0  0  0  0
    7.9574   -4.4530   21.5255 C   0  0  0  0  0  0  0  0  0  0  0  0
    7.2861    2.7441   16.7660 C   0  0  0  0  0  0  0  0  0  0  0  0
  1  2  1  0
  2  3  2  0
  3  4  1  0
  4  5  2  0
  5  6  1  0
  6  1  2  0
  7  8  2  0
  7  9  1  0
  9 10  1  0
 10 11  2  0
 11 12  1  0
 12 13  2  0
 13 14  1  0
 14 15  2  0
 15 10  1  0
  1  7  1  0
  4 16  1  0
M  END
>  <canonical_smiles>  (16) 
Cc1ccc(C(=O)Nc2ccccc2)cc1

>  <geometry_score>  (16) 
17.24306551588371

>  <evidence>  (16) 
generated graph and model pose, not experimentally validated

$$$$
Gaaff24b02248
     RDKit          3D

 16 17  0  0  0  0  0  0  0  0999 V2000
    6.1522   -1.5331   18.7505 C   0  0  0  0  0  0  0  0  0  0  0  0
    5.6449   -1.3055   17.4577 C   0  0  0  0  0  0  0  0  0  0  0  0
    5.7493   -0.0501   16.8501 C   0  0  0  0  0  0  0  0  0  0  0  0
    6.3641    0.9945   17.5309 C   0  0  0  0  0  0  0  0  0  0  0  0
    6.8735    0.7921   18.8114 C   0  0  0  0  0  0  0  0  0  0  0  0
    6.7694   -0.4660   19.4215 C   0  0  0  0  0  0  0  0  0  0  0  0
    5.9931   -2.9171   19.3216 C   0  0  0  0  0  0  0  0  0  0  0  0
    5.4324   -3.7583   18.6257 O   0  0  0  0  0  0  0  0  0  0  0  0
    6.4940   -3.1357   20.5943 N   0  0  0  0  0  0  0  0  0  0  0  0
    6.4634   -4.3408   21.3340 C   0  0  0  0  0  0  0  0  0  0  0  0
    7.0391   -4.3176   22.6126 C   0  0  0  0  0  0  0  0  0  0  0  0
    7.0531   -5.4634   23.4129 C   0  0  0  0  0  0  0  0  0  0  0  0
    6.4910   -6.6463   22.9431 C   0  0  0  0  0  0  0  0  0  0  0  0
    5.9166   -6.6807   21.6751 C   0  0  0  0  0  0  0  0  0  0  0  0
    5.9028   -5.5334   20.8742 C   0  0  0  0  0  0  0  0  0  0  0  0
    6.4970    2.5411   16.7917 Cl  0  0  0  0  0  0  0  0  0  0  0  0
  1  2  1  0
  2  3  2  0
  3  4  1  0
  4  5  2  0
  5  6  1  0
  6  1  2  0
  7  8  2  0
  7  9  1  0
  9 10  1  0
 10 11  2  0
 11 12  1  0
 12 13  2  0
 13 14  1  0
 14 15  2  0
 15 10  1  0
  1  7  1  0
  4 16  1  0
M  END
>  <canonical_smiles>  (17) 
O=C(Nc1ccccc1)c1ccc(Cl)cc1

>  <geometry_score>  (17) 
18.021537957719644

>  <evidence>  (17) 
generated graph and model pose, not experimentally validated

$$$$
G1821c874272a
     RDKit          3D

 13 14  0  0  0  0  0  0  0  0999 V2000
    6.0564   -2.6815   19.5495 C   0  0  0  0  0  0  0  0  0  0  0  0
    5.9329   -1.4848   20.2791 C   0  0  0  0  0  0  0  0  0  0  0  0
    5.6698   -0.2735   19.6340 C   0  0  0  0  0  0  0  0  0  0  0  0
    5.5293   -0.2503   18.2530 C   0  0  0  0  0  0  0  0  0  0  0  0
    5.6462   -1.4141   17.5050 C   0  0  0  0  0  0  0  0  0  0  0  0
    5.9082   -2.6248   18.1514 C   0  0  0  0  0  0  0  0  0  0  0  0
    6.3331   -3.9575   20.2300 C   0  0  0  0  0  0  0  0  0  0  0  0
    7.4326   -4.0938   21.0939 C   0  0  0  0  0  0  0  0  0  0  0  0
    7.6962   -5.3049   21.7398 C   0  0  0  0  0  0  0  0  0  0  0  0
    6.8628   -6.4011   21.5332 C   0  0  0  0  0  0  0  0  0  0  0  0
    5.7672   -6.2875   20.6814 C   0  0  0  0  0  0  0  0  0  0  0  0
    5.5056   -5.0761   20.0354 C   0  0  0  0  0  0  0  0  0  0  0  0
    5.2777    0.9104   17.6340 F   0  0  0  0  0  0  0  0  0  0  0  0
  1  2  1  0
  2  3  2  0
  3  4  1  0
  4  5  2  0
  5  6  1  0
  6  1  2  0
  7  8  2  0
  8  9  1  0
  9 10  2  0
 10 11  1  0
 11 12  2  0
 12  7  1  0
  1  7  1  0
  4 13  1  0
M  END
>  <canonical_smiles>  (18) 
Fc1ccc(-c2ccccc2)cc1

>  <geometry_score>  (18) 
16.827691697246472

>  <evidence>  (18) 
generated graph and model pose, not experimentally validated

$$$$
Gce3a7c1423d5
     RDKit          3D

 20 22  0  0  0  0  0  0  0  0999 V2000
   10.2209    0.9292   21.3765 C   0  0  0  0  0  0  0  0  0  0  0  0
    8.9540    0.7396   20.8632 C   0  0  0  0  0  0  0  0  0  0  0  0
    8.6197   -0.6409   20.6850 C   0  0  0  0  0  0  0  0  0  0  0  0
    9.6710   -1.4402   21.0848 C   0  0  0  0  0  0  0  0  0  0  0  0
   11.0177   -0.5419   21.6345 S   0  0  0  0  0  0  0  0  0  0  0  0
   10.8060    2.1550   21.6434 N   0  0  0  0  0  0  0  0  0  0  0  0
   12.0457    2.3711   22.2177 C   0  0  0  0  0  0  0  0  0  0  0  0
   12.8189    1.5438   22.6826 O   0  0  0  0  0  0  0  0  0  0  0  0
   12.4397    3.8035   22.3085 C   0  0  0  0  0  0  0  0  0  0  0  0
   13.1496    4.2266   23.4321 C   0  0  0  0  0  0  0  0  0  0  0  0
   13.5113    5.5579   23.5058 C   0  0  0  0  0  0  0  0  0  0  0  0
   13.2210    6.4653   22.5481 N   0  0  0  0  0  0  0  0  0  0  0  0
   12.5583    6.0219   21.4590 C   0  0  0  0  0  0  0  0  0  0  0  0
   12.1479    4.7117   21.2897 C   0  0  0  0  0  0  0  0  0  0  0  0
    7.4229   -1.1015   20.2020 N   0  0  0  0  0  0  0  0  0  0  0  0
    7.0854   -2.5402   20.2009 C   0  0  0  0  0  0  0  0  0  0  0  0
    5.5670   -2.7484   20.3075 C   0  0  0  0  0  0  0  0  0  0  0  0
    4.8575   -2.0321   19.2874 O   0  0  0  0  0  0  0  0  0  0  0  0
    5.1182   -0.6277   19.4143 C   0  0  0  0  0  0  0  0  0  0  0  0
    6.6123   -0.3133   19.2526 C   0  0  0  0  0  0  0  0  0  0  0  0
  1  2  2  0
  2  3  1  0
  3  4  2  0
  4  5  1  0
  5  1  1  0
  6  7  1  0
  7  8  2  0
  7  9  1  0
  9 10  1  0
 10 11  2  0
 11 12  1  0
 12 13  2  0
 13 14  1  0
 14  9  2  0
  1  6  1  0
 15 16  1  0
 16 17  1  0
 17 18  1  0
 18 19  1  0
 19 20  1  0
 20 15  1  0
  3 15  1  0
M  END
>  <canonical_smiles>  (19) 
O=C(Nc1cc(N2CCOCC2)cs1)c1ccncc1

>  <geometry_score>  (19) 
17.199513366277788

>  <evidence>  (19) 
generated graph and model pose, not experimentally validated

$$$$
Gfa991c50c5b6
     RDKit          3D

 20 22  0  0  0  0  0  0  0  0999 V2000
    6.0664   -2.5702   20.7086 C   0  0  0  0  0  0  0  0  0  0  0  0
    5.3940   -3.6335   21.3280 C   0  0  0  0  0  0  0  0  0  0  0  0
    5.7391   -4.0560   22.6227 C   0  0  0  0  0  0  0  0  0  0  0  0
    6.7873   -3.3856   23.2760 C   0  0  0  0  0  0  0  0  0  0  0  0
    7.4731   -2.3361   22.6581 C   0  0  0  0  0  0  0  0  0  0  0  0
    7.1170   -1.9292   21.3733 C   0  0  0  0  0  0  0  0  0  0  0  0
    5.6506   -2.1793   19.3348 C   0  0  0  0  0  0  0  0  0  0  0  0
    5.1934   -3.0194   18.5685 O   0  0  0  0  0  0  0  0  0  0  0  0
    5.7901   -0.8458   19.0111 N   0  0  0  0  0  0  0  0  0  0  0  0
    5.4549   -0.3472   17.6866 C   0  0  0  0  0  0  0  0  0  0  0  0
    5.2842    1.1692   17.6853 C   0  0  0  0  0  0  0  0  0  0  0  0
    6.7031    1.7262   17.5845 C   0  0  0  0  0  0  0  0  0  0  0  0
    7.5608    0.6070   16.9940 C   0  0  0  0  0  0  0  0  0  0  0  0
    6.6057   -0.5470   16.7031 C   0  0  0  0  0  0  0  0  0  0  0  0
    5.0279   -5.1707   23.2726 C   0  0  0  0  0  0  0  0  0  0  0  0
    4.4973   -5.0372   24.5670 C   0  0  0  0  0  0  0  0  0  0  0  0
    3.8225   -6.0948   25.1836 C   0  0  0  0  0  0  0  0  0  0  0  0
    3.6668   -7.3064   24.5156 C   0  0  0  0  0  0  0  0  0  0  0  0
    4.1840   -7.4607   23.2322 C   0  0  0  0  0  0  0  0  0  0  0  0
    4.8577   -6.4020   22.6170 C   0  0  0  0  0  0  0  0  0  0  0  0
  1  2  2  0
  2  3  1  0
  3  4  2  0
  4  5  1  0
  5  6  2  0
  6  1  1  0
  7  8  2  0
  7  9  1  0
  9 10  1  0
 10 11  1  0
 11 12  1  0
 12 13  1  0
 13 14  1  0
 14 10  1  0
  1  7  1  0
 15 16  2  0
 16 17  1  0
 17 18  2  0
 18 19  1  0
 19 20  2  0
 20 15  1  0
  3 15  1  0
M  END
>  <canonical_smiles>  (20) 
O=C(NC1CCCC1)c1cccc(-c2ccccc2)c1

>  <geometry_score>  (20) 
14.556659004637734

>  <evidence>  (20) 
generated graph and model pose, not experimentally validated

$$$$
G93db80e09c1d
     RDKit          3D

 14 15  0  0  0  0  0  0  0  0999 V2000
    7.9392   -3.9726   22.2760 C   0  0  0  0  0  0  0  0  0  0  0  0
    8.8892   -4.1571   23.2810 C   0  0  0  0  0  0  0  0  0  0  0  0
    9.9155   -3.2266   23.4737 C   0  0  0  0  0  0  0  0  0  0  0  0
   10.0166   -2.0871   22.6624 C   0  0  0  0  0  0  0  0  0  0  0  0
    9.0546   -1.9140   21.6545 C   0  0  0  0  0  0  0  0  0  0  0  0
    8.0252   -2.8453   21.4617 C   0  0  0  0  0  0  0  0  0  0  0  0
    6.9912   -4.9546   22.1963 O   0  0  0  0  0  0  0  0  0  0  0  0
    6.0001   -4.8099   21.1871 C   0  0  0  0  0  0  0  0  0  0  0  0
   11.0947   -1.1047   22.8614 C   0  0  0  0  0  0  0  0  0  0  0  0
   11.3178   -0.5193   24.1189 C   0  0  0  0  0  0  0  0  0  0  0  0
   12.3405    0.4142   24.3087 C   0  0  0  0  0  0  0  0  0  0  0  0
   13.1594    0.7775   23.2427 C   0  0  0  0  0  0  0  0  0  0  0  0
   12.9563    0.2089   21.9880 C   0  0  0  0  0  0  0  0  0  0  0  0
   11.9324   -0.7236   21.7997 C   0  0  0  0  0  0  0  0  0  0  0  0
  1  2  1  0
  2  3  2  0
  3  4  1  0
  4  5  2  0
  5  6  1  0
  6  1  2  0
  7  8  1  0
  1  7  1  0
  9 10  2  0
 10 11  1  0
 11 12  2  0
 12 13  1  0
 13 14  2  0
 14  9  1  0
  4  9  1  0
M  END
>  <canonical_smiles>  (21) 
COc1ccc(-c2ccccc2)cc1

>  <geometry_score>  (21) 
12.142115293593148

>  <evidence>  (21) 
generated graph and model pose, not experimentally validated

$$$$
Gbb61a0b83ac4
     RDKit          3D

 11 11  0  0  0  0  0  0  0  0999 V2000
    6.1747   -0.5292   18.9564 C   0  0  0  0  0  0  0  0  0  0  0  0
    6.0042   -1.7673   19.5500 C   0  0  0  0  0  0  0  0  0  0  0  0
    5.8281   -2.7834   18.5865 C   0  0  0  0  0  0  0  0  0  0  0  0
    5.8634   -2.3313   17.2938 C   0  0  0  0  0  0  0  0  0  0  0  0
    6.1152   -0.6384   17.2446 S   0  0  0  0  0  0  0  0  0  0  0  0
    6.4287    1.0883   19.6603 S   0  0  0  0  0  0  0  0  0  0  0  0
    7.3182    1.7988   18.7720 O   0  0  0  0  0  0  0  0  0  0  0  0
    6.7723    0.8137   21.0386 O   0  0  0  0  0  0  0  0  0  0  0  0
    4.9423    1.8714   19.7018 N   0  0  0  0  0  0  0  0  0  0  0  0
    4.3055    2.2463   18.4450 C   0  0  0  0  0  0  0  0  0  0  0  0
    5.6430   -4.0708   18.9067 F   0  0  0  0  0  0  0  0  0  0  0  0
  1  2  2  0
  2  3  1  0
  3  4  2  0
  4  5  1  0
  5  1  1  0
  6  7  2  0
  6  8  2  0
  6  9  1  0
  9 10  1  0
  1  6  1  0
  3 11  1  0
M  END
>  <canonical_smiles>  (22) 
CNS(=O)(=O)c1cc(F)cs1

>  <geometry_score>  (22) 
17.95664482728487

>  <evidence>  (22) 
generated graph and model pose, not experimentally validated

$$$$
G74b931a343d3
     RDKit          3D

 19 20  0  0  0  0  0  0  0  0999 V2000
    6.8148   -1.5100   20.4699 C   0  0  0  0  0  0  0  0  0  0  0  0
    6.0330   -0.4613   20.7759 N   0  0  0  0  0  0  0  0  0  0  0  0
    5.7950    0.4277   19.7881 C   0  0  0  0  0  0  0  0  0  0  0  0
    6.3017    0.3085   18.5158 C   0  0  0  0  0  0  0  0  0  0  0  0
    7.0991   -0.7909   18.3124 C   0  0  0  0  0  0  0  0  0  0  0  0
    7.3639   -1.7031   19.2677 N   0  0  0  0  0  0  0  0  0  0  0  0
    7.0230   -2.3831   21.5257 N   0  0  0  0  0  0  0  0  0  0  0  0
    7.7466   -3.5470   21.4799 C   0  0  0  0  0  0  0  0  0  0  0  0
    8.2720   -4.0539   20.4969 O   0  0  0  0  0  0  0  0  0  0  0  0
    7.8535   -4.2711   22.7770 C   0  0  0  0  0  0  0  0  0  0  0  0
    7.9131   -3.5994   23.9992 C   0  0  0  0  0  0  0  0  0  0  0  0
    8.0170   -4.3614   25.1497 C   0  0  0  0  0  0  0  0  0  0  0  0
    8.0656   -5.7101   25.1549 N   0  0  0  0  0  0  0  0  0  0  0  0
    8.0287   -6.3323   23.9568 C   0  0  0  0  0  0  0  0  0  0  0  0
    7.9279   -5.6644   22.7515 C   0  0  0  0  0  0  0  0  0  0  0  0
    6.0431    1.3146   17.4572 C   0  0  0  0  0  0  0  0  0  0  0  0
    6.9422    2.3351   17.4818 F   0  0  0  0  0  0  0  0  0  0  0  0
    6.0966    0.7977   16.1996 F   0  0  0  0  0  0  0  0  0  0  0  0
    4.8170    1.8964   17.5679 F   0  0  0  0  0  0  0  0  0  0  0  0
  1  2  1  0
  2  3  2  0
  3  4  1  0
  4  5  2  0
  5  6  1  0
  6  1  2  0
  7  8  1  0
  8  9  2  0
  8 10  1  0
 10 11  1  0
 11 12  2  0
 12 13  1  0
 13 14  2  0
 14 15  1  0
 15 10  2  0
  1  7  1  0
 16 17  1  0
 16 18  1  0
 16 19  1  0
  4 16  1  0
M  END
>  <canonical_smiles>  (23) 
O=C(Nc1ncc(C(F)(F)F)cn1)c1ccncc1

>  <geometry_score>  (23) 
11.145604937603121

>  <evidence>  (23) 
generated graph and model pose, not experimentally validated

$$$$
Ga51e2049e205
     RDKit          3D

 12 13  0  0  0  0  0  0  0  0999 V2000
    5.9018   -2.2219   19.6718 C   0  0  0  0  0  0  0  0  0  0  0  0
    6.4507   -1.1866   20.4200 C   0  0  0  0  0  0  0  0  0  0  0  0
    6.8323    0.0099   19.7949 C   0  0  0  0  0  0  0  0  0  0  0  0
    6.6790    0.2166   18.4124 C   0  0  0  0  0  0  0  0  0  0  0  0
    6.1170   -0.8432   17.6827 C   0  0  0  0  0  0  0  0  0  0  0  0
    5.7337   -2.0398   18.3005 C   0  0  0  0  0  0  0  0  0  0  0  0
    5.4820   -3.4335   20.1409 O   0  0  0  0  0  0  0  0  0  0  0  0
    5.7308   -3.7679   21.5050 C   0  0  0  0  0  0  0  0  0  0  0  0
    4.5841   -3.3118   22.3903 C   0  0  0  0  0  0  0  0  0  0  0  0
    7.1107    1.5328   17.7918 C   0  0  0  0  0  0  0  0  0  0  0  0
    7.7082    1.5873   16.4065 C   0  0  0  0  0  0  0  0  0  0  0  0
    6.3377    2.1511   16.6519 C   0  0  0  0  0  0  0  0  0  0  0  0
  1  2  1  0
  2  3  2  0
  3  4  1  0
  4  5  2  0
  5  6  1  0
  6  1  2  0
  7  8  1  0
  8  9  1  0
  1  7  1  0
 10 11  1  0
 11 12  1  0
 12 10  1  0
  4 10  1  0
M  END
>  <canonical_smiles>  (24) 
CCOc1ccc(C2CC2)cc1

>  <geometry_score>  (24) 
19.09296977667731

>  <evidence>  (24) 
generated graph and model pose, not experimentally validated

$$$$
Gef6fca66ca7f
     RDKit          3D

 13 13  0  0  0  0  0  0  0  0999 V2000
    6.5487   -2.3700   20.5515 C   0  0  0  0  0  0  0  0  0  0  0  0
    5.6433   -3.3621   20.6584 N   0  0  0  0  0  0  0  0  0  0  0  0
    6.0270   -4.4506   21.3548 C   0  0  0  0  0  0  0  0  0  0  0  0
    7.2725   -4.5981   21.9268 C   0  0  0  0  0  0  0  0  0  0  0  0
    8.1167   -3.5216   21.7594 C   0  0  0  0  0  0  0  0  0  0  0  0
    7.7872   -2.4092   21.0749 N   0  0  0  0  0  0  0  0  0  0  0  0
    6.1561   -1.1554   19.7609 C   0  0  0  0  0  0  0  0  0  0  0  0
    6.4320   -1.3825   18.2791 C   0  0  0  0  0  0  0  0  0  0  0  0
    5.9162   -0.3070   17.4468 N   0  0  0  0  0  0  0  0  0  0  0  0
    6.5852    0.8857   17.3008 C   0  0  0  0  0  0  0  0  0  0  0  0
    7.6355    1.1538   17.8724 O   0  0  0  0  0  0  0  0  0  0  0  0
    5.8870    1.8648   16.3969 C   0  0  0  0  0  0  0  0  0  0  0  0
    7.6528   -5.7981   22.7217 C   0  0  0  0  0  0  0  0  0  0  0  0
  1  2  1  0
  2  3  2  0
  3  4  1  0
  4  5  2  0
  5  6  1  0
  6  1  2  0
  7  8  1  0
  8  9  1  0
  9 10  1  0
 10 11  2  0
 10 12  1  0
  1  7  1  0
  4 13  1  0
M  END
>  <canonical_smiles>  (25) 
CC(=O)NCCc1ncc(C)cn1

>  <geometry_score>  (25) 
19.684187063966924

>  <evidence>  (25) 
generated graph and model pose, not experimentally validated

$$$$
G101216590b77
     RDKit          3D

 13 14  0  0  0  0  0  0  0  0999 V2000
    8.1493   -0.1284   19.8821 C   0  0  0  0  0  0  0  0  0  0  0  0
    9.2545    0.1166   20.7111 C   0  0  0  0  0  0  0  0  0  0  0  0
    9.5892   -0.7765   21.7321 C   0  0  0  0  0  0  0  0  0  0  0  0
    8.8188   -1.9151   21.9241 C   0  0  0  0  0  0  0  0  0  0  0  0
    7.7219   -2.1754   21.1141 C   0  0  0  0  0  0  0  0  0  0  0  0
    7.3866   -1.2815   20.0919 C   0  0  0  0  0  0  0  0  0  0  0  0
    7.8788    0.8190   18.8759 N   0  0  0  0  0  0  0  0  0  0  0  0
    6.8567    0.7952   17.9536 C   0  0  0  0  0  0  0  0  0  0  0  0
    5.9679   -0.0330   17.8327 O   0  0  0  0  0  0  0  0  0  0  0  0
    6.8783    1.9720   17.0389 C   0  0  0  0  0  0  0  0  0  0  0  0
    6.8815    1.7520   15.5434 C   0  0  0  0  0  0  0  0  0  0  0  0
    8.1017    2.3070   16.2158 C   0  0  0  0  0  0  0  0  0  0  0  0
    9.1386   -2.7720   22.9022 F   0  0  0  0  0  0  0  0  0  0  0  0
  1  2  1  0
  2  3  2  0
  3  4  1  0
  4  5  2  0
  5  6  1  0
  6  1  2  0
  7  8  1  0
  8  9  2  0
  8 10  1  0
 10 11  1  0
 11 12  1  0
 12 10  1  0
  1  7  1  0
  4 13  1  0
M  END
>  <canonical_smiles>  (26) 
O=C(Nc1ccc(F)cc1)C1CC1

>  <geometry_score>  (26) 
15.209905565383542

>  <evidence>  (26) 
generated graph and model pose, not experimentally validated

$$$$
G12f4b7c3660c
     RDKit          3D

 16 17  0  0  0  0  0  0  0  0999 V2000
    7.7471   -0.6065   20.1235 C   0  0  0  0  0  0  0  0  0  0  0  0
    8.6185   -0.9061   19.0712 C   0  0  0  0  0  0  0  0  0  0  0  0
    8.1060   -1.1791   17.8002 C   0  0  0  0  0  0  0  0  0  0  0  0
    6.7242   -1.1369   17.5767 C   0  0  0  0  0  0  0  0  0  0  0  0
    5.8570   -0.8126   18.6282 C   0  0  0  0  0  0  0  0  0  0  0  0
    6.3675   -0.5395   19.9004 C   0  0  0  0  0  0  0  0  0  0  0  0
    8.3189   -0.2927   21.4520 C   0  0  0  0  0  0  0  0  0  0  0  0
    9.1729    0.5880   21.5116 O   0  0  0  0  0  0  0  0  0  0  0  0
    7.8772   -1.0030   22.5592 N   0  0  0  0  0  0  0  0  0  0  0  0
    7.0543   -2.2178   22.5269 C   0  0  0  0  0  0  0  0  0  0  0  0
    7.3631   -3.1201   23.7264 C   0  0  0  0  0  0  0  0  0  0  0  0
    7.1457   -2.4778   24.9897 O   0  0  0  0  0  0  0  0  0  0  0  0
    7.3928   -1.0632   24.9790 C   0  0  0  0  0  0  0  0  0  0  0  0
    8.3613   -0.6105   23.8835 C   0  0  0  0  0  0  0  0  0  0  0  0
    6.1980   -1.4163   16.2721 C   0  0  0  0  0  0  0  0  0  0  0  0
    5.7684   -1.6478   15.2193 N   0  0  0  0  0  0  0  0  0  0  0  0
  1  2  1  0
  2  3  2  0
  3  4  1  0
  4  5  2  0
  5  6  1  0
  6  1  2  0
  7  8  2  0
  7  9  1  0
  9 10  1  0
 10 11  1  0
 11 12  1  0
 12 13  1  0
 13 14  1  0
 14  9  1  0
  1  7  1  0
 15 16  3  0
  4 15  1  0
M  END
>  <canonical_smiles>  (27) 
N#Cc1ccc(C(=O)N2CCOCC2)cc1

>  <geometry_score>  (27) 
7.913649789252181

>  <evidence>  (27) 
generated graph and model pose, not experimentally validated

$$$$
Gef83940f5823
     RDKit          3D

 21 23  0  0  0  0  0  0  0  0999 V2000
    6.4702   -0.7072   21.1349 C   0  0  0  0  0  0  0  0  0  0  0  0
    7.7034   -1.1571   21.6080 C   0  0  0  0  0  0  0  0  0  0  0  0
    7.9224   -2.5293   21.7977 C   0  0  0  0  0  0  0  0  0  0  0  0
    6.9354   -3.4902   21.5199 C   0  0  0  0  0  0  0  0  0  0  0  0
    5.7121   -3.0060   21.0279 C   0  0  0  0  0  0  0  0  0  0  0  0
    5.4789   -1.6387   20.8294 C   0  0  0  0  0  0  0  0  0  0  0  0
    6.1878    0.7393   20.9160 C   0  0  0  0  0  0  0  0  0  0  0  0
    5.4769    1.0536   19.9693 O   0  0  0  0  0  0  0  0  0  0  0  0
    6.7451    1.5862   21.8570 N   0  0  0  0  0  0  0  0  0  0  0  0
    6.6972    2.9960   21.8763 C   0  0  0  0  0  0  0  0  0  0  0  0
    7.2860    3.6412   22.9724 C   0  0  0  0  0  0  0  0  0  0  0  0
    7.2860    5.0357   23.0648 C   0  0  0  0  0  0  0  0  0  0  0  0
    6.6985    5.7992   22.0602 C   0  0  0  0  0  0  0  0  0  0  0  0
    6.1134    5.1673   20.9657 C   0  0  0  0  0  0  0  0  0  0  0  0
    6.1134    3.7714   20.8734 C   0  0  0  0  0  0  0  0  0  0  0  0
    7.1587   -4.8400   21.7149 N   0  0  0  0  0  0  0  0  0  0  0  0
    6.0546   -5.8038   21.8535 C   0  0  0  0  0  0  0  0  0  0  0  0
    6.5148   -7.0181   22.6784 C   0  0  0  0  0  0  0  0  0  0  0  0
    7.6346   -7.7188   22.1195 O   0  0  0  0  0  0  0  0  0  0  0  0
    8.4891   -6.8824   21.3279 C   0  0  0  0  0  0  0  0  0  0  0  0
    8.5143   -5.4105   21.7741 C   0  0  0  0  0  0  0  0  0  0  0  0
  1  2  1  0
  2  3  2  0
  3  4  1  0
  4  5  2  0
  5  6  1  0
  6  1  2  0
  7  8  2  0
  7  9  1  0
  9 10  1  0
 10 11  2  0
 11 12  1  0
 12 13  2  0
 13 14  1  0
 14 15  2  0
 15 10  1  0
  1  7  1  0
 16 17  1  0
 17 18  1  0
 18 19  1  0
 19 20  1  0
 20 21  1  0
 21 16  1  0
  4 16  1  0
M  END
>  <canonical_smiles>  (28) 
O=C(Nc1ccccc1)c1ccc(N2CCOCC2)cc1

>  <geometry_score>  (28) 
8.921630211882928

>  <evidence>  (28) 
generated graph and model pose, not experimentally validated

$$$$
G6d993437ec1d
     RDKit          3D

 18 19  0  0  0  0  0  0  0  0999 V2000
    8.9089    1.2292   20.9274 C   0  0  0  0  0  0  0  0  0  0  0  0
    8.1348    0.7820   19.8774 C   0  0  0  0  0  0  0  0  0  0  0  0
    8.1888   -0.6355   19.7111 C   0  0  0  0  0  0  0  0  0  0  0  0
    9.0123   -1.2064   20.6592 C   0  0  0  0  0  0  0  0  0  0  0  0
    9.6900   -0.0488   21.7196 S   0  0  0  0  0  0  0  0  0  0  0  0
    9.0377    2.5490   21.3220 N   0  0  0  0  0  0  0  0  0  0  0  0
    9.8450    3.0343   22.3342 C   0  0  0  0  0  0  0  0  0  0  0  0
   10.6598    2.4182   23.0092 O   0  0  0  0  0  0  0  0  0  0  0  0
    9.7153    4.4972   22.5803 C   0  0  0  0  0  0  0  0  0  0  0  0
    8.4880    5.1550   22.4850 C   0  0  0  0  0  0  0  0  0  0  0  0
    8.4649    6.5149   22.7382 C   0  0  0  0  0  0  0  0  0  0  0  0
    9.5571    7.2345   23.0721 N   0  0  0  0  0  0  0  0  0  0  0  0
   10.7261    6.5667   23.1799 C   0  0  0  0  0  0  0  0  0  0  0  0
   10.8557    5.2105   22.9504 C   0  0  0  0  0  0  0  0  0  0  0  0
    7.5394   -1.4133   18.7594 N   0  0  0  0  0  0  0  0  0  0  0  0
    6.6903   -0.9318   17.7798 C   0  0  0  0  0  0  0  0  0  0  0  0
    6.3663    0.2371   17.5998 O   0  0  0  0  0  0  0  0  0  0  0  0
    6.1523   -2.0361   16.9062 C   0  0  0  0  0  0  0  0  0  0  0  0
  1  2  2  0
  2  3  1  0
  3  4  2  0
  4  5  1  0
  5  1  1  0
  6  7  1  0
  7  8  2  0
  7  9  1  0
  9 10  1  0
 10 11  2  0
 11 12  1  0
 12 13  2  0
 13 14  1  0
 14  9  2  0
  1  6  1  0
 15 16  1  0
 16 17  2  0
 16 18  1  0
  3 15  1  0
M  END
>  <canonical_smiles>  (29) 
CC(=O)Nc1csc(NC(=O)c2ccncc2)c1

>  <geometry_score>  (29) 
16.617129873589654

>  <evidence>  (29) 
generated graph and model pose, not experimentally validated

$$$$
G3956033a5344
     RDKit          3D

 16 17  0  0  0  0  0  0  0  0999 V2000
    6.0527   -2.4053   19.2252 C   0  0  0  0  0  0  0  0  0  0  0  0
    5.0641   -2.4667   18.2456 C   0  0  0  0  0  0  0  0  0  0  0  0
    4.9152   -1.3791   17.4093 C   0  0  0  0  0  0  0  0  0  0  0  0
    5.6785   -0.2673   17.4839 N   0  0  0  0  0  0  0  0  0  0  0  0
    6.6557   -0.2333   18.4203 C   0  0  0  0  0  0  0  0  0  0  0  0
    6.8729   -1.2789   19.3112 C   0  0  0  0  0  0  0  0  0  0  0  0
    6.2167   -3.5720   20.1303 C   0  0  0  0  0  0  0  0  0  0  0  0
    5.9158   -4.6941   19.7402 O   0  0  0  0  0  0  0  0  0  0  0  0
    6.6868   -3.3048   21.3989 N   0  0  0  0  0  0  0  0  0  0  0  0
    6.9263   -4.3719   22.3587 C   0  0  0  0  0  0  0  0  0  0  0  0
    8.2953   -5.0161   22.1522 C   0  0  0  0  0  0  0  0  0  0  0  0
    9.2724   -4.0619   22.8329 C   0  0  0  0  0  0  0  0  0  0  0  0
    8.4692   -3.3326   23.9099 C   0  0  0  0  0  0  0  0  0  0  0  0
    7.0312   -3.8321   23.7822 C   0  0  0  0  0  0  0  0  0  0  0  0
    7.5012    1.0122   18.4781 C   0  0  0  0  0  0  0  0  0  0  0  0
    6.9584    2.0104   19.4885 C   0  0  0  0  0  0  0  0  0  0  0  0
  1  2  1  0
  2  3  2  0
  3  4  1  0
  4  5  2  0
  5  6  1  0
  6  1  2  0
  7  8  2  0
  7  9  1  0
  9 10  1  0
 10 11  1  0
 11 12  1  0
 12 13  1  0
 13 14  1  0
 14 10  1  0
  1  7  1  0
 15 16  1  0
  5 15  1  0
M  END
>  <canonical_smiles>  (30) 
CCc1cc(C(=O)NC2CCCC2)ccn1

>  <geometry_score>  (30) 
15.938513799138075

>  <evidence>  (30) 
generated graph and model pose, not experimentally validated

$$$$
Gb989d60cc470
     RDKit          3D

 18 20  0  0  0  0  0  0  0  0999 V2000
    6.2198   -3.3029   20.0172 C   0  0  0  0  0  0  0  0  0  0  0  0
    5.7107   -4.5922   19.8544 C   0  0  0  0  0  0  0  0  0  0  0  0
    6.0951   -5.6159   20.7284 C   0  0  0  0  0  0  0  0  0  0  0  0
    6.9849   -5.3874   21.7940 C   0  0  0  0  0  0  0  0  0  0  0  0
    7.4649   -4.0724   21.9455 C   0  0  0  0  0  0  0  0  0  0  0  0
    7.0900   -3.0393   21.0774 C   0  0  0  0  0  0  0  0  0  0  0  0
    5.7898   -2.2385   19.0671 C   0  0  0  0  0  0  0  0  0  0  0  0
    4.6448   -2.2776   18.6337 O   0  0  0  0  0  0  0  0  0  0  0  0
    6.7729   -1.3212   18.7426 N   0  0  0  0  0  0  0  0  0  0  0  0
    6.6441   -0.1816   17.9210 C   0  0  0  0  0  0  0  0  0  0  0  0
    5.4422    0.2362   17.3477 C   0  0  0  0  0  0  0  0  0  0  0  0
    5.3985    1.3835   16.5485 C   0  0  0  0  0  0  0  0  0  0  0  0
    6.5555    2.1235   16.3176 C   0  0  0  0  0  0  0  0  0  0  0  0
    7.7591    1.7176   16.8868 C   0  0  0  0  0  0  0  0  0  0  0  0
    7.8025    0.5714   17.6852 C   0  0  0  0  0  0  0  0  0  0  0  0
    7.4267   -6.4670   22.7659 C   0  0  0  0  0  0  0  0  0  0  0  0
    6.4725   -7.5438   23.2231 C   0  0  0  0  0  0  0  0  0  0  0  0
    7.6187   -7.8959   22.3184 C   0  0  0  0  0  0  0  0  0  0  0  0
  1  2  1  0
  2  3  2  0
  3  4  1  0
  4  5  2  0
  5  6  1  0
  6  1  2  0
  7  8  2  0
  7  9  1  0
  9 10  1  0
 10 11  2  0
 11 12  1  0
 12 13  2  0
 13 14  1  0
 14 15  2  0
 15 10  1  0
  1  7  1  0
 16 17  1  0
 17 18  1  0
 18 16  1  0
  4 16  1  0
M  END
>  <canonical_smiles>  (31) 
O=C(Nc1ccccc1)c1ccc(C2CC2)cc1

>  <geometry_score>  (31) 
17.893377343321983

>  <evidence>  (31) 
generated graph and model pose, not experimentally validated

$$$$
Gbf3a3de0c0bf
     RDKit          3D

 19 20  0  0  0  0  0  0  0  0999 V2000
    8.0868   -2.3830   22.4595 C   0  0  0  0  0  0  0  0  0  0  0  0
    8.3664   -1.2597   23.2445 C   0  0  0  0  0  0  0  0  0  0  0  0
    9.6825   -0.7939   23.3644 C   0  0  0  0  0  0  0  0  0  0  0  0
   10.7287   -1.4343   22.6962 C   0  0  0  0  0  0  0  0  0  0  0  0
   10.4389   -2.5453   21.8938 C   0  0  0  0  0  0  0  0  0  0  0  0
    9.1273   -3.0151   21.7720 C   0  0  0  0  0  0  0  0  0  0  0  0
    6.7026   -2.9150   22.3034 C   0  0  0  0  0  0  0  0  0  0  0  0
    6.3967   -3.4180   21.2289 O   0  0  0  0  0  0  0  0  0  0  0  0
    5.9094   -2.8153   23.4319 N   0  0  0  0  0  0  0  0  0  0  0  0
    4.5532   -3.1827   23.5615 C   0  0  0  0  0  0  0  0  0  0  0  0
    3.9708   -3.0422   24.8285 C   0  0  0  0  0  0  0  0  0  0  0  0
    2.6312   -3.3793   25.0403 C   0  0  0  0  0  0  0  0  0  0  0  0
    1.8597   -3.8587   23.9857 C   0  0  0  0  0  0  0  0  0  0  0  0
    2.4285   -3.9990   22.7223 C   0  0  0  0  0  0  0  0  0  0  0  0
    3.7695   -3.6616   22.5105 C   0  0  0  0  0  0  0  0  0  0  0  0
   12.0758   -1.0256   22.7669 N   0  0  0  0  0  0  0  0  0  0  0  0
   12.6016    0.0181   23.5078 C   0  0  0  0  0  0  0  0  0  0  0  0
   11.9932    0.7699   24.2602 O   0  0  0  0  0  0  0  0  0  0  0  0
   14.0907    0.1531   23.3115 C   0  0  0  0  0  0  0  0  0  0  0  0
  1  2  1  0
  2  3  2  0
  3  4  1  0
  4  5  2  0
  5  6  1  0
  6  1  2  0
  7  8  2  0
  7  9  1  0
  9 10  1  0
 10 11  2  0
 11 12  1  0
 12 13  2  0
 13 14  1  0
 14 15  2  0
 15 10  1  0
  1  7  1  0
 16 17  1  0
 17 18  2  0
 17 19  1  0
  4 16  1  0
M  END
>  <canonical_smiles>  (32) 
CC(=O)Nc1ccc(C(=O)Nc2ccccc2)cc1

>  <geometry_score>  (32) 
8.277632984665907

>  <evidence>  (32) 
generated graph and model pose, not experimentally validated

$$$$
G6a5ddca468ad
     RDKit          3D

 14 15  0  0  0  0  0  0  0  0999 V2000
    7.3361   -3.9074   21.4734 C   0  0  0  0  0  0  0  0  0  0  0  0
    6.0947   -4.5210   21.3958 C   0  0  0  0  0  0  0  0  0  0  0  0
    5.1211   -3.9122   20.6251 C   0  0  0  0  0  0  0  0  0  0  0  0
    5.3060   -2.7619   19.9430 N   0  0  0  0  0  0  0  0  0  0  0  0
    6.5250   -2.1690   20.0116 C   0  0  0  0  0  0  0  0  0  0  0  0
    7.5524   -2.7190   20.7752 C   0  0  0  0  0  0  0  0  0  0  0  0
    8.4132   -4.3558   22.1879 O   0  0  0  0  0  0  0  0  0  0  0  0
    8.2409   -5.5605   22.9249 C   0  0  0  0  0  0  0  0  0  0  0  0
    6.6707   -0.9175   19.2386 C   0  0  0  0  0  0  0  0  0  0  0  0
    5.5576   -0.1048   18.9759 C   0  0  0  0  0  0  0  0  0  0  0  0
    5.7188    1.0656   18.2510 C   0  0  0  0  0  0  0  0  0  0  0  0
    6.9025    1.4889   17.7648 N   0  0  0  0  0  0  0  0  0  0  0  0
    7.9667    0.6991   18.0087 C   0  0  0  0  0  0  0  0  0  0  0  0
    7.9028   -0.4883   18.7247 C   0  0  0  0  0  0  0  0  0  0  0  0
  1  2  1  0
  2  3  2  0
  3  4  1  0
  4  5  2  0
  5  6  1  0
  6  1  2  0
  7  8  1  0
  1  7  1  0
  9 10  1  0
 10 11  2  0
 11 12  1  0
 12 13  2  0
 13 14  1  0
 14  9  2  0
  5  9  1  0
M  END
>  <canonical_smiles>  (33) 
COc1ccnc(-c2ccncc2)c1

>  <geometry_score>  (33) 
18.22327247763531

>  <evidence>  (33) 
generated graph and model pose, not experimentally validated

$$$$
Gf92910409c0b
     RDKit          3D

 15 16  0  0  0  0  0  0  0  0999 V2000
    5.3560   -2.6006   22.0843 C   0  0  0  0  0  0  0  0  0  0  0  0
    6.1824   -1.6012   22.4184 N   0  0  0  0  0  0  0  0  0  0  0  0
    6.5720   -0.7913   21.4112 C   0  0  0  0  0  0  0  0  0  0  0  0
    6.1817   -0.9328   20.0904 C   0  0  0  0  0  0  0  0  0  0  0  0
    5.3302   -2.0046   19.8806 C   0  0  0  0  0  0  0  0  0  0  0  0
    4.9009   -2.8470   20.8454 N   0  0  0  0  0  0  0  0  0  0  0  0
    4.9758   -3.4071   23.1338 O   0  0  0  0  0  0  0  0  0  0  0  0
    4.1016   -4.4630   22.7447 C   0  0  0  0  0  0  0  0  0  0  0  0
    3.7636   -5.2711   23.9852 C   0  0  0  0  0  0  0  0  0  0  0  0
    6.6271   -0.0366   19.0188 C   0  0  0  0  0  0  0  0  0  0  0  0
    5.7157    0.5260   18.1156 C   0  0  0  0  0  0  0  0  0  0  0  0
    6.1846    1.3689   17.1192 C   0  0  0  0  0  0  0  0  0  0  0  0
    7.4845    1.6857   16.9569 N   0  0  0  0  0  0  0  0  0  0  0  0
    8.3542    1.1393   17.8296 C   0  0  0  0  0  0  0  0  0  0  0  0
    7.9804    0.2894   18.8597 C   0  0  0  0  0  0  0  0  0  0  0  0
  1  2  1  0
  2  3  2  0
  3  4  1  0
  4  5  2  0
  5  6  1  0
  6  1  2  0
  7  8  1  0
  8  9  1  0
  1  7  1  0
 10 11  1  0
 11 12  2  0
 12 13  1  0
 13 14  2  0
 14 15  1  0
 15 10  2  0
  4 10  1  0
M  END
>  <canonical_smiles>  (34) 
CCOc1ncc(-c2ccncc2)cn1

>  <geometry_score>  (34) 
16.81182817203876

>  <evidence>  (34) 
generated graph and model pose, not experimentally validated

$$$$
Gea6fca97f350
     RDKit          3D

 17 18  0  0  0  0  0  0  0  0999 V2000
    8.2620    0.5530   20.2871 C   0  0  0  0  0  0  0  0  0  0  0  0
    7.0297    0.2405   20.8706 C   0  0  0  0  0  0  0  0  0  0  0  0
    5.9633   -0.1656   20.0632 C   0  0  0  0  0  0  0  0  0  0  0  0
    6.1084   -0.2537   18.6752 C   0  0  0  0  0  0  0  0  0  0  0  0
    7.3328    0.0763   18.0933 C   0  0  0  0  0  0  0  0  0  0  0  0
    8.4044    0.4836   18.8963 C   0  0  0  0  0  0  0  0  0  0  0  0
    9.4309    0.9915   21.1018 C   0  0  0  0  0  0  0  0  0  0  0  0
   10.1912    1.8224   20.6202 O   0  0  0  0  0  0  0  0  0  0  0  0
    9.5509    0.3642   22.3287 N   0  0  0  0  0  0  0  0  0  0  0  0
   10.5158    0.6131   23.3275 C   0  0  0  0  0  0  0  0  0  0  0  0
   11.4870    1.6120   23.2438 C   0  0  0  0  0  0  0  0  0  0  0  0
   12.4052    1.7974   24.2829 C   0  0  0  0  0  0  0  0  0  0  0  0
   12.3588    0.9871   25.4145 C   0  0  0  0  0  0  0  0  0  0  0  0
   11.3926   -0.0103   25.5098 C   0  0  0  0  0  0  0  0  0  0  0  0
   10.4754   -0.1953   24.4717 C   0  0  0  0  0  0  0  0  0  0  0  0
    4.9865   -0.6649   18.0107 O   0  0  0  0  0  0  0  0  0  0  0  0
    5.0710   -0.7435   16.5930 C   0  0  0  0  0  0  0  0  0  0  0  0
  1  2  1  0
  2  3  2  0
  3  4  1  0
  4  5  2  0
  5  6  1  0
  6  1  2  0
  7  8  2  0
  7  9  1  0
  9 10  1  0
 10 11  2  0
 11 12  1  0
 12 13  2  0
 13 14  1  0
 14 15  2  0
 15 10  1  0
  1  7  1  0
 16 17  1  0
  4 16  1  0
M  END
>  <canonical_smiles>  (35) 
COc1ccc(C(=O)Nc2ccccc2)cc1

>  <geometry_score>  (35) 
12.606448297475652

>  <evidence>  (35) 
generated graph and model pose, not experimentally validated

$$$$
G4f89a311a414
     RDKit          3D

 14 15  0  0  0  0  0  0  0  0999 V2000
    6.1978   -1.4408   19.3832 C   0  0  0  0  0  0  0  0  0  0  0  0
    7.2797   -1.6669   20.1551 N   0  0  0  0  0  0  0  0  0  0  0  0
    7.1792   -2.6608   21.0590 C   0  0  0  0  0  0  0  0  0  0  0  0
    6.0504   -3.4336   21.2305 C   0  0  0  0  0  0  0  0  0  0  0  0
    5.0055   -3.1238   20.3861 C   0  0  0  0  0  0  0  0  0  0  0  0
    5.0492   -2.1420   19.4646 N   0  0  0  0  0  0  0  0  0  0  0  0
    6.2764   -0.3587   18.3846 C   0  0  0  0  0  0  0  0  0  0  0  0
    7.4346    0.4190   18.2335 C   0  0  0  0  0  0  0  0  0  0  0  0
    7.4621    1.4258   17.2810 C   0  0  0  0  0  0  0  0  0  0  0  0
    6.4273    1.7181   16.4683 N   0  0  0  0  0  0  0  0  0  0  0  0
    5.3167    0.9688   16.6168 C   0  0  0  0  0  0  0  0  0  0  0  0
    5.1966   -0.0578   17.5407 C   0  0  0  0  0  0  0  0  0  0  0  0
    5.9771   -4.5433   22.2310 C   0  0  0  0  0  0  0  0  0  0  0  0
    6.4407   -5.8683   21.6452 C   0  0  0  0  0  0  0  0  0  0  0  0
  1  2  1  0
  2  3  2  0
  3  4  1  0
  4  5  2  0
  5  6  1  0
  6  1  2  0
  7  8  1  0
  8  9  2  0
  9 10  1  0
 10 11  2  0
 11 12  1  0
 12  7  2  0
  1  7  1  0
 13 14  1  0
  4 13  1  0
M  END
>  <canonical_smiles>  (36) 
CCc1cnc(-c2ccncc2)nc1

>  <geometry_score>  (36) 
20.276424700587107

>  <evidence>  (36) 
generated graph and model pose, not experimentally validated

$$$$
G3eea60e45e56
     RDKit          3D

 14 14  0  0  0  0  0  0  0  0999 V2000
    5.6087   -3.0086   19.7097 C   0  0  0  0  0  0  0  0  0  0  0  0
    5.6849   -1.6312   19.8849 C   0  0  0  0  0  0  0  0  0  0  0  0
    5.2275   -1.0032   18.6903 C   0  0  0  0  0  0  0  0  0  0  0  0
    4.8951   -2.0415   17.8489 C   0  0  0  0  0  0  0  0  0  0  0  0
    5.1174   -3.2391   18.4405 O   0  0  0  0  0  0  0  0  0  0  0  0
    6.0303   -4.3493   20.8221 S   0  0  0  0  0  0  0  0  0  0  0  0
    7.4626   -4.5068   20.7055 O   0  0  0  0  0  0  0  0  0  0  0  0
    5.3994   -4.0040   22.0766 O   0  0  0  0  0  0  0  0  0  0  0  0
    5.2918   -5.7654   20.2790 N   0  0  0  0  0  0  0  0  0  0  0  0
    5.8980   -6.4149   19.1141 C   0  0  0  0  0  0  0  0  0  0  0  0
    5.1192    0.4452   18.3988 C   0  0  0  0  0  0  0  0  0  0  0  0
    5.7421    1.2048   19.3347 F   0  0  0  0  0  0  0  0  0  0  0  0
    5.6730    0.7611   17.2010 F   0  0  0  0  0  0  0  0  0  0  0  0
    3.8258    0.8517   18.3554 F   0  0  0  0  0  0  0  0  0  0  0  0
  1  2  2  0
  2  3  1  0
  3  4  2  0
  4  5  1  0
  5  1  1  0
  6  7  2  0
  6  8  2  0
  6  9  1  0
  9 10  1  0
  1  6  1  0
 11 12  1  0
 11 13  1  0
 11 14  1  0
  3 11  1  0
M  END
>  <canonical_smiles>  (37) 
CNS(=O)(=O)c1cc(C(F)(F)F)co1

>  <geometry_score>  (37) 
17.4985995286451

>  <evidence>  (37) 
generated graph and model pose, not experimentally validated

$$$$
G6c1443c8d080
     RDKit          3D

 13 13  0  0  0  0  0  0  0  0999 V2000
   11.0203    1.1052   22.8334 C   0  0  0  0  0  0  0  0  0  0  0  0
   11.3160    2.1590   21.9716 C   0  0  0  0  0  0  0  0  0  0  0  0
   11.6309    3.4269   22.4825 C   0  0  0  0  0  0  0  0  0  0  0  0
   11.6539    3.6557   23.8585 C   0  0  0  0  0  0  0  0  0  0  0  0
   11.3563    2.5946   24.7200 C   0  0  0  0  0  0  0  0  0  0  0  0
   11.0425    1.3311   24.2095 C   0  0  0  0  0  0  0  0  0  0  0  0
   10.6992   -0.1719   22.4675 O   0  0  0  0  0  0  0  0  0  0  0  0
   10.6626   -0.4553   21.0697 C   0  0  0  0  0  0  0  0  0  0  0  0
   10.2887   -1.9167   20.8982 C   0  0  0  0  0  0  0  0  0  0  0  0
   11.9603    4.8989   24.4480 N   0  0  0  0  0  0  0  0  0  0  0  0
   12.2833    6.0803   23.8045 C   0  0  0  0  0  0  0  0  0  0  0  0
   12.3639    6.2686   22.5964 O   0  0  0  0  0  0  0  0  0  0  0  0
   12.5468    7.1974   24.7829 C   0  0  0  0  0  0  0  0  0  0  0  0
  1  2  1  0
  2  3  2  0
  3  4  1  0
  4  5  2  0
  5  6  1  0
  6  1  2  0
  7  8  1  0
  8  9  1  0
  1  7  1  0
 10 11  1  0
 11 12  2  0
 11 13  1  0
  4 10  1  0
M  END
>  <canonical_smiles>  (38) 
CCOc1ccc(NC(C)=O)cc1

>  <geometry_score>  (38) 
11.914973175828226

>  <evidence>  (38) 
generated graph and model pose, not experimentally validated

$$$$
G709a91d564ab
     RDKit          3D

 17 18  0  0  0  0  0  0  0  0999 V2000
    5.9138   -4.7175   20.7529 C   0  0  0  0  0  0  0  0  0  0  0  0
    5.2918   -4.8974   21.9619 C   0  0  0  0  0  0  0  0  0  0  0  0
    5.5187   -6.2107   22.5153 C   0  0  0  0  0  0  0  0  0  0  0  0
    6.3225   -6.9509   21.6633 C   0  0  0  0  0  0  0  0  0  0  0  0
    6.7785   -6.0883   20.2544 S   0  0  0  0  0  0  0  0  0  0  0  0
    5.9857   -3.6657   19.8714 N   0  0  0  0  0  0  0  0  0  0  0  0
    5.3285   -2.4680   20.0657 C   0  0  0  0  0  0  0  0  0  0  0  0
    4.5595   -2.1982   20.9808 O   0  0  0  0  0  0  0  0  0  0  0  0
    5.5716   -1.4364   19.0209 C   0  0  0  0  0  0  0  0  0  0  0  0
    4.5388   -0.5490   18.7163 C   0  0  0  0  0  0  0  0  0  0  0  0
    4.7698    0.4079   17.7469 C   0  0  0  0  0  0  0  0  0  0  0  0
    5.9406    0.5338   17.0856 N   0  0  0  0  0  0  0  0  0  0  0  0
    6.9308   -0.3208   17.4180 C   0  0  0  0  0  0  0  0  0  0  0  0
    6.8009   -1.3154   18.3712 C   0  0  0  0  0  0  0  0  0  0  0  0
    4.9671   -6.6568   23.7933 C   0  0  0  0  0  0  0  0  0  0  0  0
    4.2902   -5.9358   24.5185 O   0  0  0  0  0  0  0  0  0  0  0  0
    5.2309   -7.9415   24.1727 N   0  0  0  0  0  0  0  0  0  0  0  0
  1  2  2  0
  2  3  1  0
  3  4  2  0
  4  5  1  0
  5  1  1  0
  6  7  1  0
  7  8  2  0
  7  9  1  0
  9 10  1  0
 10 11  2  0
 11 12  1  0
 12 13  2  0
 13 14  1  0
 14  9  2  0
  1  6  1  0
 15 16  2  0
 15 17  1  0
  3 15  1  0
M  END
>  <canonical_smiles>  (39) 
NC(=O)c1csc(NC(=O)c2ccncc2)c1

>  <geometry_score>  (39) 
19.00206775047149

>  <evidence>  (39) 
generated graph and model pose, not experimentally validated

$$$$
G3bcffb298cff
     RDKit          3D

 20 22  0  0  0  0  0  0  0  0999 V2000
    5.9354   -5.3352   22.6904 C   0  0  0  0  0  0  0  0  0  0  0  0
    7.3057   -5.5837   22.5997 C   0  0  0  0  0  0  0  0  0  0  0  0
    8.1877   -4.5616   22.2241 C   0  0  0  0  0  0  0  0  0  0  0  0
    7.7349   -3.2668   21.9300 C   0  0  0  0  0  0  0  0  0  0  0  0
    6.3550   -3.0356   22.0557 C   0  0  0  0  0  0  0  0  0  0  0  0
    5.4615   -4.0484   22.4318 C   0  0  0  0  0  0  0  0  0  0  0  0
    5.0366   -6.4505   23.0958 C   0  0  0  0  0  0  0  0  0  0  0  0
    5.4661   -7.3649   23.7903 O   0  0  0  0  0  0  0  0  0  0  0  0
    3.7408   -6.3977   22.6246 N   0  0  0  0  0  0  0  0  0  0  0  0
    2.7716   -7.4119   22.9763 C   0  0  0  0  0  0  0  0  0  0  0  0
    2.1832   -7.2093   24.3717 C   0  0  0  0  0  0  0  0  0  0  0  0
    0.8236   -7.9064   24.3395 C   0  0  0  0  0  0  0  0  0  0  0  0
    0.5205   -8.1933   22.8697 C   0  0  0  0  0  0  0  0  0  0  0  0
    1.5374   -7.3809   22.0828 C   0  0  0  0  0  0  0  0  0  0  0  0
    8.5938   -2.2372   21.5628 N   0  0  0  0  0  0  0  0  0  0  0  0
    8.2654   -1.4496   20.3574 C   0  0  0  0  0  0  0  0  0  0  0  0
    9.0132   -0.1073   20.3702 C   0  0  0  0  0  0  0  0  0  0  0  0
   10.4279   -0.2870   20.5333 O   0  0  0  0  0  0  0  0  0  0  0  0
   10.6928   -0.9461   21.7810 C   0  0  0  0  0  0  0  0  0  0  0  0
   10.0386   -2.3349   21.8391 C   0  0  0  0  0  0  0  0  0  0  0  0
  1  2  1  0
  2  3  2  0
  3  4  1  0
  4  5  2  0
  5  6  1  0
  6  1  2  0
  7  8  2  0
  7  9  1  0
  9 10  1  0
 10 11  1  0
 11 12  1  0
 12 13  1  0
 13 14  1  0
 14 10  1  0
  1  7  1  0
 15 16  1  0
 16 17  1  0
 17 18  1  0
 18 19  1  0
 19 20  1  0
 20 15  1  0
  4 15  1  0
M  END
>  <canonical_smiles>  (40) 
O=C(NC1CCCC1)c1ccc(N2CCOCC2)cc1

>  <geometry_score>  (40) 
9.59858469358382

>  <evidence>  (40) 
generated graph and model pose, not experimentally validated

$$$$
G4aea048316b5
     RDKit          3D

 17 18  0  0  0  0  0  0  0  0999 V2000
    7.0399   -0.5368   19.3920 C   0  0  0  0  0  0  0  0  0  0  0  0
    6.8007   -0.5645   20.7163 N   0  0  0  0  0  0  0  0  0  0  0  0
    7.7704   -0.0055   21.4694 C   0  0  0  0  0  0  0  0  0  0  0  0
    8.9343    0.5641   20.9656 C   0  0  0  0  0  0  0  0  0  0  0  0
    9.0368    0.5237   19.5793 C   0  0  0  0  0  0  0  0  0  0  0  0
    8.1112   -0.0101   18.7531 N   0  0  0  0  0  0  0  0  0  0  0  0
    5.7747   -1.2618   18.3225 S   0  0  0  0  0  0  0  0  0  0  0  0
    6.0670   -2.6763   18.1980 O   0  0  0  0  0  0  0  0  0  0  0  0
    4.4702   -0.7744   18.7258 O   0  0  0  0  0  0  0  0  0  0  0  0
    6.1122   -0.5732   16.7807 N   0  0  0  0  0  0  0  0  0  0  0  0
    5.6974    0.8274   16.6161 C   0  0  0  0  0  0  0  0  0  0  0  0
    9.9665    1.1559   21.8232 C   0  0  0  0  0  0  0  0  0  0  0  0
   10.4846    0.4522   22.9243 C   0  0  0  0  0  0  0  0  0  0  0  0
   11.4692    1.0146   23.7413 C   0  0  0  0  0  0  0  0  0  0  0  0
   11.9527    2.2919   23.4727 C   0  0  0  0  0  0  0  0  0  0  0  0
   11.4534    3.0072   22.3880 C   0  0  0  0  0  0  0  0  0  0  0  0
   10.4696    2.4440   21.5704 C   0  0  0  0  0  0  0  0  0  0  0  0
  1  2  1  0
  2  3  2  0
  3  4  1  0
  4  5  2  0
  5  6  1  0
  6  1  2  0
  7  8  2  0
  7  9  2  0
  7 10  1  0
 10 11  1  0
  1  7  1  0
 12 13  2  0
 13 14  1  0
 14 15  2  0
 15 16  1  0
 16 17  2  0
 17 12  1  0
  4 12  1  0
M  END
>  <canonical_smiles>  (41) 
CNS(=O)(=O)c1ncc(-c2ccccc2)cn1

>  <geometry_score>  (41) 
15.572172971710962

>  <evidence>  (41) 
generated graph and model pose, not experimentally validated

$$$$
G8d4826f890ae
     RDKit          3D

 14 15  0  0  0  0  0  0  0  0999 V2000
    6.4108   -1.7686   19.6561 C   0  0  0  0  0  0  0  0  0  0  0  0
    6.8241   -0.5104   20.1079 C   0  0  0  0  0  0  0  0  0  0  0  0
    6.5242    0.6362   19.3688 C   0  0  0  0  0  0  0  0  0  0  0  0
    5.8132    0.5388   18.1658 C   0  0  0  0  0  0  0  0  0  0  0  0
    5.4233   -0.7257   17.7042 C   0  0  0  0  0  0  0  0  0  0  0  0
    5.7209   -1.8750   18.4425 C   0  0  0  0  0  0  0  0  0  0  0  0
    6.7529   -2.9619   20.4779 C   0  0  0  0  0  0  0  0  0  0  0  0
    7.7590   -2.9553   21.1794 O   0  0  0  0  0  0  0  0  0  0  0  0
    5.8618   -4.0174   20.4172 N   0  0  0  0  0  0  0  0  0  0  0  0
    6.0777   -5.2335   21.1339 C   0  0  0  0  0  0  0  0  0  0  0  0
    5.2346   -6.4481   20.8571 C   0  0  0  0  0  0  0  0  0  0  0  0
    6.6764   -6.4268   20.4430 C   0  0  0  0  0  0  0  0  0  0  0  0
    5.5086    1.7750   17.3577 C   0  0  0  0  0  0  0  0  0  0  0  0
    6.6177    2.0903   16.3658 C   0  0  0  0  0  0  0  0  0  0  0  0
  1  2  1  0
  2  3  2  0
  3  4  1  0
  4  5  2  0
  5  6  1  0
  6  1  2  0
  7  8  2  0
  7  9  1  0
  9 10  1  0
 10 11  1  0
 11 12  1  0
 12 10  1  0
  1  7  1  0
 13 14  1  0
  4 13  1  0
M  END
>  <canonical_smiles>  (42) 
CCc1ccc(C(=O)NC2CC2)cc1

>  <geometry_score>  (42) 
17.100168750986104

>  <evidence>  (42) 
generated graph and model pose, not experimentally validated

$$$$
G35ab0177d262
     RDKit          3D

 15 16  0  0  0  0  0  0  0  0999 V2000
    7.1174    1.6025   20.7835 C   0  0  0  0  0  0  0  0  0  0  0  0
    6.7113    1.1179   22.0369 C   0  0  0  0  0  0  0  0  0  0  0  0
    7.2549    1.6315   23.2192 C   0  0  0  0  0  0  0  0  0  0  0  0
    8.2121    2.6507   23.1736 C   0  0  0  0  0  0  0  0  0  0  0  0
    8.6369    3.1351   21.9325 C   0  0  0  0  0  0  0  0  0  0  0  0
    8.0908    2.6152   20.7521 C   0  0  0  0  0  0  0  0  0  0  0  0
    6.5452    1.0616   19.5397 C   0  0  0  0  0  0  0  0  0  0  0  0
    5.1554    1.0300   19.3365 C   0  0  0  0  0  0  0  0  0  0  0  0
    4.6108    0.5179   18.1556 C   0  0  0  0  0  0  0  0  0  0  0  0
    5.4482    0.0269   17.1573 C   0  0  0  0  0  0  0  0  0  0  0  0
    6.8286    0.0475   17.3387 C   0  0  0  0  0  0  0  0  0  0  0  0
    7.3716    0.5610   18.5197 C   0  0  0  0  0  0  0  0  0  0  0  0
    8.7558    3.1610   24.4611 C   0  0  0  0  0  0  0  0  0  0  0  0
    8.6827    2.5059   25.4935 O   0  0  0  0  0  0  0  0  0  0  0  0
    9.3180    4.4066   24.4675 N   0  0  0  0  0  0  0  0  0  0  0  0
  1  2  1  0
  2  3  2  0
  3  4  1  0
  4  5  2  0
  5  6  1  0
  6  1  2  0
  7  8  2  0
  8  9  1  0
  9 10  2  0
 10 11  1  0
 11 12  2  0
 12  7  1  0
  1  7  1  0
 13 14  2  0
 13 15  1  0
  4 13  1  0
M  END
>  <canonical_smiles>  (43) 
NC(=O)c1ccc(-c2ccccc2)cc1

>  <geometry_score>  (43) 
11.555673908746206

>  <evidence>  (43) 
generated graph and model pose, not experimentally validated

$$$$
Ga103aa7017c8
     RDKit          3D

 20 22  0  0  0  0  0  0  0  0999 V2000
    6.4975    2.1201   20.7506 C   0  0  0  0  0  0  0  0  0  0  0  0
    5.6456    2.7428   19.8470 C   0  0  0  0  0  0  0  0  0  0  0  0
    4.8880    1.9300   19.0331 C   0  0  0  0  0  0  0  0  0  0  0  0
    4.9419    0.5793   19.0648 N   0  0  0  0  0  0  0  0  0  0  0  0
    5.8133   -0.0186   19.9192 C   0  0  0  0  0  0  0  0  0  0  0  0
    6.6084    0.7295   20.7802 C   0  0  0  0  0  0  0  0  0  0  0  0
    7.3300    2.9610   21.6336 C   0  0  0  0  0  0  0  0  0  0  0  0
    8.0455    3.8071   21.1046 O   0  0  0  0  0  0  0  0  0  0  0  0
    7.2639    2.7649   23.0055 N   0  0  0  0  0  0  0  0  0  0  0  0
    6.2644    1.9515   23.7097 C   0  0  0  0  0  0  0  0  0  0  0  0
    5.9942    2.5083   25.1115 C   0  0  0  0  0  0  0  0  0  0  0  0
    7.1676    2.5696   25.9331 O   0  0  0  0  0  0  0  0  0  0  0  0
    8.3818    2.8120   25.2060 C   0  0  0  0  0  0  0  0  0  0  0  0
    8.1719    3.5235   23.8673 C   0  0  0  0  0  0  0  0  0  0  0  0
    5.8402   -1.4949   19.8732 C   0  0  0  0  0  0  0  0  0  0  0  0
    6.9918   -2.2366   20.1731 C   0  0  0  0  0  0  0  0  0  0  0  0
    6.9433   -3.6225   20.1157 C   0  0  0  0  0  0  0  0  0  0  0  0
    5.8410   -4.3227   19.7847 N   0  0  0  0  0  0  0  0  0  0  0  0
    4.7415   -3.6044   19.4818 C   0  0  0  0  0  0  0  0  0  0  0  0
    4.6950   -2.2195   19.5105 C   0  0  0  0  0  0  0  0  0  0  0  0
  1  2  1  0
  2  3  2  0
  3  4  1  0
  4  5  2  0
  5  6  1  0
  6  1  2  0
  7  8  2  0
  7  9  1  0
  9 10  1  0
 10 11  1  0
 11 12  1  0
 12 13  1  0
 13 14  1  0
 14  9  1  0
  1  7  1  0
 15 16  1  0
 16 17  2  0
 17 18  1  0
 18 19  2  0
 19 20  1  0
 20 15  2  0
  5 15  1  0
M  END
>  <canonical_smiles>  (44) 
O=C(c1ccnc(-c2ccncc2)c1)N1CCOCC1

>  <geometry_score>  (44) 
10.439407235662554

>  <evidence>  (44) 
generated graph and model pose, not experimentally validated

$$$$
Gf4bd0c90851f
     RDKit          3D

 20 22  0  0  0  0  0  0  0  0999 V2000
    7.1335   -1.1624   21.0830 C   0  0  0  0  0  0  0  0  0  0  0  0
    8.1504   -0.2134   20.9369 C   0  0  0  0  0  0  0  0  0  0  0  0
    8.9497    0.1305   22.0337 C   0  0  0  0  0  0  0  0  0  0  0  0
    8.7586   -0.4688   23.2905 C   0  0  0  0  0  0  0  0  0  0  0  0
    7.7443   -1.4321   23.4148 C   0  0  0  0  0  0  0  0  0  0  0  0
    6.9425   -1.7800   22.3228 C   0  0  0  0  0  0  0  0  0  0  0  0
    6.2580   -1.5674   19.9492 C   0  0  0  0  0  0  0  0  0  0  0  0
    5.7818   -2.6962   19.9133 O   0  0  0  0  0  0  0  0  0  0  0  0
    6.0098   -0.6050   18.9925 N   0  0  0  0  0  0  0  0  0  0  0  0
    5.2022   -0.8935   17.8177 C   0  0  0  0  0  0  0  0  0  0  0  0
    6.0281   -1.5545   16.7165 C   0  0  0  0  0  0  0  0  0  0  0  0
    6.7586   -0.3975   16.0409 C   0  0  0  0  0  0  0  0  0  0  0  0
    5.8949    0.8418   16.2762 C   0  0  0  0  0  0  0  0  0  0  0  0
    4.7206    0.3864   17.1406 C   0  0  0  0  0  0  0  0  0  0  0  0
    9.6044   -0.1053   24.4393 C   0  0  0  0  0  0  0  0  0  0  0  0
    9.7445    1.2339   24.8406 C   0  0  0  0  0  0  0  0  0  0  0  0
   10.5474    1.5795   25.9311 C   0  0  0  0  0  0  0  0  0  0  0  0
   11.2255    0.5904   26.6388 C   0  0  0  0  0  0  0  0  0  0  0  0
   11.1010   -0.7430   26.2577 C   0  0  0  0  0  0  0  0  0  0  0  0
   10.2968   -1.0871   25.1677 C   0  0  0  0  0  0  0  0  0  0  0  0
  1  2  1  0
  2  3  2  0
  3  4  1  0
  4  5  2  0
  5  6  1  0
  6  1  2  0
  7  8  2  0
  7  9  1  0
  9 10  1  0
 10 11  1  0
 11 12  1  0
 12 13  1  0
 13 14  1  0
 14 10  1  0
  1  7  1  0
 15 16  2  0
 16 17  1  0
 17 18  2  0
 18 19  1  0
 19 20  2  0
 20 15  1  0
  4 15  1  0
M  END
>  <canonical_smiles>  (45) 
O=C(NC1CCCC1)c1ccc(-c2ccccc2)cc1

>  <geometry_score>  (45) 
8.466886950957807

>  <evidence>  (45) 
generated graph and model pose, not experimentally validated

$$$$
Gf1942a1c2e5d
     RDKit          3D

 19 20  0  0  0  0  0  0  0  0999 V2000
    7.0226   -1.2619   21.1501 C   0  0  0  0  0  0  0  0  0  0  0  0
    5.8888   -1.9619   21.5594 C   0  0  0  0  0  0  0  0  0  0  0  0
    4.9181   -2.2612   20.6198 C   0  0  0  0  0  0  0  0  0  0  0  0
    5.0045   -1.9165   19.3204 N   0  0  0  0  0  0  0  0  0  0  0  0
    6.1154   -1.2349   18.9187 C   0  0  0  0  0  0  0  0  0  0  0  0
    7.1360   -0.8967   19.8110 C   0  0  0  0  0  0  0  0  0  0  0  0
    7.9967   -0.9746   22.1317 N   0  0  0  0  0  0  0  0  0  0  0  0
    9.1585   -0.2418   21.9628 C   0  0  0  0  0  0  0  0  0  0  0  0
    9.5041    0.3564   20.9517 O   0  0  0  0  0  0  0  0  0  0  0  0
   10.0326   -0.1570   23.1633 C   0  0  0  0  0  0  0  0  0  0  0  0
   10.1919   -1.2348   24.0354 C   0  0  0  0  0  0  0  0  0  0  0  0
   11.0308   -1.0644   25.1221 C   0  0  0  0  0  0  0  0  0  0  0  0
   11.6984    0.0795   25.3813 N   0  0  0  0  0  0  0  0  0  0  0  0
   11.5438    1.0969   24.5066 C   0  0  0  0  0  0  0  0  0  0  0  0
   10.7330    1.0277   23.3901 C   0  0  0  0  0  0  0  0  0  0  0  0
    6.2593   -0.8207   17.4595 C   0  0  0  0  0  0  0  0  0  0  0  0
    7.4048   -1.2995   16.8902 F   0  0  0  0  0  0  0  0  0  0  0  0
    5.2445   -1.2460   16.6534 F   0  0  0  0  0  0  0  0  0  0  0  0
    6.3113    0.5346   17.3023 F   0  0  0  0  0  0  0  0  0  0  0  0
  1  2  1  0
  2  3  2  0
  3  4  1  0
  4  5  2  0
  5  6  1  0
  6  1  2  0
  7  8  1  0
  8  9  2  0
  8 10  1  0
 10 11  1  0
 11 12  2  0
 12 13  1  0
 13 14  2  0
 14 15  1  0
 15 10  2  0
  1  7  1  0
 16 17  1  0
 16 18  1  0
 16 19  1  0
  5 16  1  0
M  END
>  <canonical_smiles>  (46) 
O=C(Nc1ccnc(C(F)(F)F)c1)c1ccncc1

>  <geometry_score>  (46) 
13.305538231768136

>  <evidence>  (46) 
generated graph and model pose, not experimentally validated

$$$$
G5bafca755ef1
     RDKit          3D

 11 11  0  0  0  0  0  0  0  0999 V2000
    7.7213   -0.7795   20.3268 C   0  0  0  0  0  0  0  0  0  0  0  0
    8.5146   -0.0399   19.4503 C   0  0  0  0  0  0  0  0  0  0  0  0
    7.9211    0.6941   18.4164 C   0  0  0  0  0  0  0  0  0  0  0  0
    6.5299    0.7022   18.2536 C   0  0  0  0  0  0  0  0  0  0  0  0
    5.7359   -0.0500   19.1248 C   0  0  0  0  0  0  0  0  0  0  0  0
    6.3340   -0.7820   20.1561 C   0  0  0  0  0  0  0  0  0  0  0  0
    8.1683   -1.5368   21.3736 O   0  0  0  0  0  0  0  0  0  0  0  0
    9.5746   -1.5791   21.5820 C   0  0  0  0  0  0  0  0  0  0  0  0
    5.9593    1.5014   17.1356 C   0  0  0  0  0  0  0  0  0  0  0  0
    6.6444    1.8487   16.1814 O   0  0  0  0  0  0  0  0  0  0  0  0
    4.6452    1.8669   17.2164 N   0  0  0  0  0  0  0  0  0  0  0  0
  1  2  1  0
  2  3  2  0
  3  4  1  0
  4  5  2  0
  5  6  1  0
  6  1  2  0
  7  8  1  0
  1  7  1  0
  9 10  2  0
  9 11  1  0
  4  9  1  0
M  END
>  <canonical_smiles>  (47) 
COc1ccc(C(N)=O)cc1

>  <geometry_score>  (47) 
17.5563840504321

>  <evidence>  (47) 
generated graph and model pose, not experimentally validated

$$$$
Gf2d106e9c936
     RDKit          3D

 16 17  0  0  0  0  0  0  0  0999 V2000
    8.4549    0.5376   21.6837 C   0  0  0  0  0  0  0  0  0  0  0  0
    9.3794    1.4023   22.2621 C   0  0  0  0  0  0  0  0  0  0  0  0
    9.0992    1.8777   23.5279 C   0  0  0  0  0  0  0  0  0  0  0  0
    7.9913    1.5437   24.2260 N   0  0  0  0  0  0  0  0  0  0  0  0
    7.1353    0.6746   23.6450 C   0  0  0  0  0  0  0  0  0  0  0  0
    7.3211    0.1396   22.3860 C   0  0  0  0  0  0  0  0  0  0  0  0
    8.7348   -0.0145   20.3465 C   0  0  0  0  0  0  0  0  0  0  0  0
    9.7750   -0.6531   20.2106 O   0  0  0  0  0  0  0  0  0  0  0  0
    7.8257    0.2052   19.3222 N   0  0  0  0  0  0  0  0  0  0  0  0
    6.7400    1.1942   19.3216 C   0  0  0  0  0  0  0  0  0  0  0  0
    5.4816    0.6183   18.6653 C   0  0  0  0  0  0  0  0  0  0  0  0
    5.7677    0.1218   17.3487 O   0  0  0  0  0  0  0  0  0  0  0  0
    6.7575   -0.9189   17.4028 C   0  0  0  0  0  0  0  0  0  0  0  0
    8.0662   -0.4113   18.0161 C   0  0  0  0  0  0  0  0  0  0  0  0
    5.9914    0.2812   24.3102 O   0  0  0  0  0  0  0  0  0  0  0  0
    5.8901    0.8333   25.6192 C   0  0  0  0  0  0  0  0  0  0  0  0
  1  2  1  0
  2  3  2  0
  3  4  1  0
  4  5  2  0
  5  6  1  0
  6  1  2  0
  7  8  2  0
  7  9  1  0
  9 10  1  0
 10 11  1  0
 11 12  1  0
 12 13  1  0
 13 14  1  0
 14  9  1  0
  1  7  1  0
 15 16  1  0
  5 15  1  0
M  END
>  <canonical_smiles>  (48) 
COc1cc(C(=O)N2CCOCC2)ccn1

>  <geometry_score>  (48) 
12.650438485881537

>  <evidence>  (48) 
generated graph and model pose, not experimentally validated

$$$$
G2f4bc221dc65
     RDKit          3D

 12 12  0  0  0  0  0  0  0  0999 V2000
    6.5059   -0.5242   18.0986 C   0  0  0  0  0  0  0  0  0  0  0  0
    6.2407    0.2992   17.0063 C   0  0  0  0  0  0  0  0  0  0  0  0
    6.6093    1.6265   17.0928 C   0  0  0  0  0  0  0  0  0  0  0  0
    7.2167    2.1659   18.1719 N   0  0  0  0  0  0  0  0  0  0  0  0
    7.4890    1.3495   19.2160 C   0  0  0  0  0  0  0  0  0  0  0  0
    7.1528    0.0008   19.2190 C   0  0  0  0  0  0  0  0  0  0  0  0
    6.1137   -1.9552   18.0117 C   0  0  0  0  0  0  0  0  0  0  0  0
    6.0365   -2.5021   16.9177 O   0  0  0  0  0  0  0  0  0  0  0  0
    5.8177   -2.5850   19.2026 N   0  0  0  0  0  0  0  0  0  0  0  0
    5.3981   -3.9707   19.2322 C   0  0  0  0  0  0  0  0  0  0  0  0
    5.6452   -4.5948   20.5919 C   0  0  0  0  0  0  0  0  0  0  0  0
    8.1923    1.9543   20.3944 C   0  0  0  0  0  0  0  0  0  0  0  0
  1  2  1  0
  2  3  2  0
  3  4  1  0
  4  5  2  0
  5  6  1  0
  6  1  2  0
  7  8  2  0
  7  9  1  0
  9 10  1  0
 10 11  1  0
  1  7  1  0
  5 12  1  0
M  END
>  <canonical_smiles>  (49) 
CCNC(=O)c1ccnc(C)c1

>  <geometry_score>  (49) 
17.950355417812656

>  <evidence>  (49) 
generated graph and model pose, not experimentally validated

$$$$
G1405de9f56a8
     RDKit          3D

 11 11  0  0  0  0  0  0  0  0999 V2000
    6.2829   -1.5714   18.9863 C   0  0  0  0  0  0  0  0  0  0  0  0
    7.3111   -0.6356   19.0951 C   0  0  0  0  0  0  0  0  0  0  0  0
    8.1957   -0.6750   20.1833 C   0  0  0  0  0  0  0  0  0  0  0  0
    8.0608   -1.6515   21.1690 C   0  0  0  0  0  0  0  0  0  0  0  0
    7.0268   -2.5825   21.0597 C   0  0  0  0  0  0  0  0  0  0  0  0
    6.1458   -2.5442   19.9762 C   0  0  0  0  0  0  0  0  0  0  0  0
    5.3592   -1.6416   17.9810 O   0  0  0  0  0  0  0  0  0  0  0  0
    5.4588   -0.6708   16.9471 C   0  0  0  0  0  0  0  0  0  0  0  0
    8.8439   -1.8015   22.2779 O   0  0  0  0  0  0  0  0  0  0  0  0
   10.0093   -0.9907   22.4150 C   0  0  0  0  0  0  0  0  0  0  0  0
    9.6829    0.3051   23.1368 C   0  0  0  0  0  0  0  0  0  0  0  0
  1  2  1  0
  2  3  2  0
  3  4  1  0
  4  5  2  0
  5  6  1  0
  6  1  2  0
  7  8  1  0
  1  7  1  0
  9 10  1  0
 10 11  1  0
  4  9  1  0
M  END
>  <canonical_smiles>  (50) 
CCOc1ccc(OC)cc1

>  <geometry_score>  (50) 
13.468685508566386

>  <evidence>  (50) 
generated graph and model pose, not experimentally validated

$$$$
Gc81e8c991121
     RDKit          3D

 16 17  0  0  0  0  0  0  0  0999 V2000
    6.1031   -2.3409   19.4766 C   0  0  0  0  0  0  0  0  0  0  0  0
    5.2943   -2.2536   20.6118 C   0  0  0  0  0  0  0  0  0  0  0  0
    4.9246   -3.4202   21.2845 C   0  0  0  0  0  0  0  0  0  0  0  0
    5.3405   -4.6738   20.8227 C   0  0  0  0  0  0  0  0  0  0  0  0
    6.1276   -4.7554   19.6718 C   0  0  0  0  0  0  0  0  0  0  0  0
    6.5027   -3.5903   18.9942 C   0  0  0  0  0  0  0  0  0  0  0  0
    6.5001   -1.1280   18.7269 C   0  0  0  0  0  0  0  0  0  0  0  0
    6.2421   -1.0850   17.5264 O   0  0  0  0  0  0  0  0  0  0  0  0
    7.1515   -0.1038   19.4009 N   0  0  0  0  0  0  0  0  0  0  0  0
    7.7091   -0.1891   20.7558 C   0  0  0  0  0  0  0  0  0  0  0  0
    8.9319    0.7229   20.9019 C   0  0  0  0  0  0  0  0  0  0  0  0
    8.6491    2.1023   20.6296 O   0  0  0  0  0  0  0  0  0  0  0  0
    7.6139    2.3068   19.6554 C   0  0  0  0  0  0  0  0  0  0  0  0
    7.4385    1.1382   18.6828 C   0  0  0  0  0  0  0  0  0  0  0  0
    4.9079   -5.7294   21.5770 O   0  0  0  0  0  0  0  0  0  0  0  0
    5.2647   -7.0308   21.1275 C   0  0  0  0  0  0  0  0  0  0  0  0
  1  2  1  0
  2  3  2  0
  3  4  1  0
  4  5  2  0
  5  6  1  0
  6  1  2  0
  7  8  2  0
  7  9  1  0
  9 10  1  0
 10 11  1  0
 11 12  1  0
 12 13  1  0
 13 14  1  0
 14  9  1  0
  1  7  1  0
 15 16  1  0
  4 15  1  0
M  END
>  <canonical_smiles>  (51) 
COc1ccc(C(=O)N2CCOCC2)cc1

>  <geometry_score>  (51) 
16.292993943435516

>  <evidence>  (51) 
generated graph and model pose, not experimentally validated

$$$$
G7eac8a1b6dbb
     RDKit          3D

 15 16  0  0  0  0  0  0  0  0999 V2000
    7.7541    0.8551   19.4176 C   0  0  0  0  0  0  0  0  0  0  0  0
    7.7500   -0.5376   19.4425 C   0  0  0  0  0  0  0  0  0  0  0  0
    6.9795   -1.1911   18.5003 C   0  0  0  0  0  0  0  0  0  0  0  0
    6.2456   -0.5541   17.5631 N   0  0  0  0  0  0  0  0  0  0  0  0
    6.3053    0.7943   17.5509 C   0  0  0  0  0  0  0  0  0  0  0  0
    7.0409    1.5450   18.4427 C   0  0  0  0  0  0  0  0  0  0  0  0
    8.5937    1.5821   20.3880 C   0  0  0  0  0  0  0  0  0  0  0  0
    9.7842    1.2842   20.4297 O   0  0  0  0  0  0  0  0  0  0  0  0
    8.0136    2.5510   21.1919 N   0  0  0  0  0  0  0  0  0  0  0  0
    8.8712    3.4162   22.0059 C   0  0  0  0  0  0  0  0  0  0  0  0
    8.4260    3.4047   23.4701 C   0  0  0  0  0  0  0  0  0  0  0  0
    7.0369    3.7569   23.5844 O   0  0  0  0  0  0  0  0  0  0  0  0
    6.2188    2.8196   22.8694 C   0  0  0  0  0  0  0  0  0  0  0  0
    6.5760    2.7888   21.3771 C   0  0  0  0  0  0  0  0  0  0  0  0
    5.5960    1.4362   16.6121 F   0  0  0  0  0  0  0  0  0  0  0  0
  1  2  1  0
  2  3  2  0
  3  4  1  0
  4  5  2  0
  5  6  1  0
  6  1  2  0
  7  8  2  0
  7  9  1  0
  9 10  1  0
 10 11  1  0
 11 12  1  0
 12 13  1  0
 13 14  1  0
 14  9  1  0
  1  7  1  0
  5 15  1  0
M  END
>  <canonical_smiles>  (52) 
O=C(c1ccnc(F)c1)N1CCOCC1

>  <geometry_score>  (52) 
16.099987543469474

>  <evidence>  (52) 
generated graph and model pose, not experimentally validated

$$$$
G7f8325baa65c
     RDKit          3D

 12 12  0  0  0  0  0  0  0  0999 V2000
    5.6380   -3.2466   18.5586 C   0  0  0  0  0  0  0  0  0  0  0  0
    4.8493   -2.1319   18.8452 C   0  0  0  0  0  0  0  0  0  0  0  0
    5.2658   -0.8437   18.4887 C   0  0  0  0  0  0  0  0  0  0  0  0
    6.4829   -0.6531   17.8374 C   0  0  0  0  0  0  0  0  0  0  0  0
    7.2734   -1.7731   17.5505 C   0  0  0  0  0  0  0  0  0  0  0  0
    6.8555   -3.0620   17.9079 C   0  0  0  0  0  0  0  0  0  0  0  0
    5.1116   -4.4417   18.9619 O   0  0  0  0  0  0  0  0  0  0  0  0
    5.8790   -5.6075   18.6919 C   0  0  0  0  0  0  0  0  0  0  0  0
    6.9800    0.6056   17.4424 N   0  0  0  0  0  0  0  0  0  0  0  0
    6.3811    1.8407   17.6175 C   0  0  0  0  0  0  0  0  0  0  0  0
    5.3030    2.0737   18.1505 O   0  0  0  0  0  0  0  0  0  0  0  0
    7.2265    2.9572   17.0576 C   0  0  0  0  0  0  0  0  0  0  0  0
  1  2  1  0
  2  3  2  0
  3  4  1  0
  4  5  2  0
  5  6  1  0
  6  1  2  0
  7  8  1  0
  1  7  1  0
  9 10  1  0
 10 11  2  0
 10 12  1  0
  4  9  1  0
M  END
>  <canonical_smiles>  (53) 
COc1ccc(NC(C)=O)cc1

>  <geometry_score>  (53) 
13.213810308404739

>  <evidence>  (53) 
generated graph and model pose, not experimentally validated

$$$$
G8358fb3b02b4
     RDKit          3D

 20 22  0  0  0  0  0  0  0  0999 V2000
    5.3433   -2.8191   21.7059 C   0  0  0  0  0  0  0  0  0  0  0  0
    4.6148   -2.5725   22.8131 N   0  0  0  0  0  0  0  0  0  0  0  0
    4.1972   -3.6557   23.5006 C   0  0  0  0  0  0  0  0  0  0  0  0
    4.4713   -4.9674   23.1478 C   0  0  0  0  0  0  0  0  0  0  0  0
    5.2293   -5.0863   21.9932 C   0  0  0  0  0  0  0  0  0  0  0  0
    5.6750   -4.0478   21.2529 N   0  0  0  0  0  0  0  0  0  0  0  0
    5.8859   -1.6203   20.9649 C   0  0  0  0  0  0  0  0  0  0  0  0
    6.2568   -0.6402   21.6161 O   0  0  0  0  0  0  0  0  0  0  0  0
    5.9748   -1.6398   19.5660 N   0  0  0  0  0  0  0  0  0  0  0  0
    6.7799   -0.6211   18.8900 C   0  0  0  0  0  0  0  0  0  0  0  0
    6.0920   -0.1070   17.6246 C   0  0  0  0  0  0  0  0  0  0  0  0
    5.7432   -1.1944   16.7537 O   0  0  0  0  0  0  0  0  0  0  0  0
    4.8279   -2.0807   17.4109 C   0  0  0  0  0  0  0  0  0  0  0  0
    5.4346   -2.6813   18.6861 C   0  0  0  0  0  0  0  0  0  0  0  0
    4.0072   -6.1209   23.9256 C   0  0  0  0  0  0  0  0  0  0  0  0
    3.3725   -7.2069   23.3084 C   0  0  0  0  0  0  0  0  0  0  0  0
    2.9501   -8.2740   24.0868 C   0  0  0  0  0  0  0  0  0  0  0  0
    3.1163   -8.3380   25.4225 N   0  0  0  0  0  0  0  0  0  0  0  0
    3.7294   -7.2901   26.0078 C   0  0  0  0  0  0  0  0  0  0  0  0
    4.1827   -6.1780   25.3146 C   0  0  0  0  0  0  0  0  0  0  0  0
  1  2  1  0
  2  3  2  0
  3  4  1  0
  4  5  2  0
  5  6  1  0
  6  1  2  0
  7  8  2  0
  7  9  1  0
  9 10  1  0
 10 11  1  0
 11 12  1  0
 12 13  1  0
 13 14  1  0
 14  9  1  0
  1  7  1  0
 15 16  1  0
 16 17  2  0
 17 18  1  0
 18 19  2  0
 19 20  1  0
 20 15  2  0
  4 15  1  0
M  END
>  <canonical_smiles>  (54) 
O=C(c1ncc(-c2ccncc2)cn1)N1CCOCC1

>  <geometry_score>  (54) 
15.341607413268736

>  <evidence>  (54) 
generated graph and model pose, not experimentally validated

$$$$
G1a0770303e68
     RDKit          3D

 16 17  0  0  0  0  0  0  0  0999 V2000
    6.2230   -1.8413   20.1463 C   0  0  0  0  0  0  0  0  0  0  0  0
    6.5653   -0.5509   20.5745 C   0  0  0  0  0  0  0  0  0  0  0  0
    6.0505    0.5765   19.9264 C   0  0  0  0  0  0  0  0  0  0  0  0
    5.1875    0.4183   18.8463 C   0  0  0  0  0  0  0  0  0  0  0  0
    4.8366   -0.8565   18.4125 C   0  0  0  0  0  0  0  0  0  0  0  0
    5.3531   -1.9837   19.0626 C   0  0  0  0  0  0  0  0  0  0  0  0
    6.7812   -2.9244   20.8575 N   0  0  0  0  0  0  0  0  0  0  0  0
    6.6361   -4.2718   20.5797 C   0  0  0  0  0  0  0  0  0  0  0  0
    6.0674   -4.7682   19.6154 O   0  0  0  0  0  0  0  0  0  0  0  0
    7.2882   -5.1879   21.5538 C   0  0  0  0  0  0  0  0  0  0  0  0
    7.3079   -4.9136   22.9220 C   0  0  0  0  0  0  0  0  0  0  0  0
    7.9317   -5.8273   23.7524 C   0  0  0  0  0  0  0  0  0  0  0  0
    8.5169   -6.9617   23.3136 N   0  0  0  0  0  0  0  0  0  0  0  0
    8.4608   -7.2120   21.9875 C   0  0  0  0  0  0  0  0  0  0  0  0
    7.8599   -6.3666   21.0749 C   0  0  0  0  0  0  0  0  0  0  0  0
    4.5523    1.8025   18.0477 Cl  0  0  0  0  0  0  0  0  0  0  0  0
  1  2  1  0
  2  3  2  0
  3  4  1  0
  4  5  2  0
  5  6  1  0
  6  1  2  0
  7  8  1  0
  8  9  2  0
  8 10  1  0
 10 11  1  0
 11 12  2  0
 12 13  1  0
 13 14  2  0
 14 15  1  0
 15 10  2  0
  1  7  1  0
  4 16  1  0
M  END
>  <canonical_smiles>  (55) 
O=C(Nc1ccc(Cl)cc1)c1ccncc1

>  <geometry_score>  (55) 
15.659119498182315

>  <evidence>  (55) 
generated graph and model pose, not experimentally validated

$$$$
G68bc43ae4067
     RDKit          3D

 15 16  0  0  0  0  0  0  0  0999 V2000
    7.1680    1.2117   20.6068 C   0  0  0  0  0  0  0  0  0  0  0  0
    7.5817    2.4531   20.0948 C   0  0  0  0  0  0  0  0  0  0  0  0
    8.1485    3.4289   20.9247 C   0  0  0  0  0  0  0  0  0  0  0  0
    8.3055    3.1810   22.2919 C   0  0  0  0  0  0  0  0  0  0  0  0
    7.9096    1.9444   22.8124 C   0  0  0  0  0  0  0  0  0  0  0  0
    7.3443    0.9733   21.9791 C   0  0  0  0  0  0  0  0  0  0  0  0
    6.5769    0.1892   19.7294 C   0  0  0  0  0  0  0  0  0  0  0  0
    5.4737    0.4800   18.9183 C   0  0  0  0  0  0  0  0  0  0  0  0
    4.9515   -0.5169   18.1084 C   0  0  0  0  0  0  0  0  0  0  0  0
    5.4466   -1.7696   18.0462 N   0  0  0  0  0  0  0  0  0  0  0  0
    6.5096   -2.0375   18.8318 C   0  0  0  0  0  0  0  0  0  0  0  0
    7.0985   -1.1088   19.6761 C   0  0  0  0  0  0  0  0  0  0  0  0
    8.9042    4.1749   23.2233 C   0  0  0  0  0  0  0  0  0  0  0  0
    9.3793    3.8381   24.3008 O   0  0  0  0  0  0  0  0  0  0  0  0
    8.8834    5.4903   22.8540 N   0  0  0  0  0  0  0  0  0  0  0  0
  1  2  1  0
  2  3  2  0
  3  4  1  0
  4  5  2  0
  5  6  1  0
  6  1  2  0
  7  8  1  0
  8  9  2  0
  9 10  1  0
 10 11  2  0
 11 12  1  0
 12  7  2  0
  1  7  1  0
 13 14  2  0
 13 15  1  0
  4 13  1  0
M  END
>  <canonical_smiles>  (56) 
NC(=O)c1ccc(-c2ccncc2)cc1

>  <geometry_score>  (56) 
13.032629327865676

>  <evidence>  (56) 
generated graph and model pose, not experimentally validated

$$$$
Gc670e1c22279
     RDKit          3D

 20 22  0  0  0  0  0  0  0  0999 V2000
    7.9203   -0.6480   22.1952 C   0  0  0  0  0  0  0  0  0  0  0  0
    7.5079   -0.9327   23.4937 C   0  0  0  0  0  0  0  0  0  0  0  0
    8.4663   -0.9452   24.4839 C   0  0  0  0  0  0  0  0  0  0  0  0
    9.7754   -0.7011   24.2601 N   0  0  0  0  0  0  0  0  0  0  0  0
   10.1774   -0.4363   22.9902 C   0  0  0  0  0  0  0  0  0  0  0  0
    9.2719   -0.4115   21.9323 C   0  0  0  0  0  0  0  0  0  0  0  0
    6.8953   -0.6461   21.1197 C   0  0  0  0  0  0  0  0  0  0  0  0
    5.8924   -1.3411   21.2333 O   0  0  0  0  0  0  0  0  0  0  0  0
    7.1311    0.1843   20.0440 N   0  0  0  0  0  0  0  0  0  0  0  0
    6.2134    0.2420   18.9267 C   0  0  0  0  0  0  0  0  0  0  0  0
    6.3857   -0.9279   17.9591 C   0  0  0  0  0  0  0  0  0  0  0  0
    5.8581   -0.4211   16.6172 C   0  0  0  0  0  0  0  0  0  0  0  0
    5.7074    1.0928   16.7569 C   0  0  0  0  0  0  0  0  0  0  0  0
    6.4491    1.4548   18.0344 C   0  0  0  0  0  0  0  0  0  0  0  0
   11.6263   -0.2004   22.8123 C   0  0  0  0  0  0  0  0  0  0  0  0
   12.5644   -0.8513   23.6355 C   0  0  0  0  0  0  0  0  0  0  0  0
   13.9391   -0.6494   23.4806 C   0  0  0  0  0  0  0  0  0  0  0  0
   14.4085    0.2163   22.4982 C   0  0  0  0  0  0  0  0  0  0  0  0
   13.5045    0.8825   21.6763 C   0  0  0  0  0  0  0  0  0  0  0  0
   12.1292    0.6776   21.8335 C   0  0  0  0  0  0  0  0  0  0  0  0
  1  2  1  0
  2  3  2  0
  3  4  1  0
  4  5  2  0
  5  6  1  0
  6  1  2  0
  7  8  2  0
  7  9  1  0
  9 10  1  0
 10 11  1  0
 11 12  1  0
 12 13  1  0
 13 14  1  0
 14 10  1  0
  1  7  1  0
 15 16  2  0
 16 17  1  0
 17 18  2  0
 18 19  1  0
 19 20  2  0
 20 15  1  0
  5 15  1  0
M  END
>  <canonical_smiles>  (57) 
O=C(NC1CCCC1)c1ccnc(-c2ccccc2)c1

>  <geometry_score>  (57) 
9.846876754388276

>  <evidence>  (57) 
generated graph and model pose, not experimentally validated

$$$$
Gc371b64f6a07
     RDKit          3D

 12 12  0  0  0  0  0  0  0  0999 V2000
    6.0576   -1.5154   19.2996 C   0  0  0  0  0  0  0  0  0  0  0  0
    7.1715   -0.7119   19.0312 C   0  0  0  0  0  0  0  0  0  0  0  0
    7.0107    0.5347   18.4217 C   0  0  0  0  0  0  0  0  0  0  0  0
    5.7330    1.0024   18.0923 C   0  0  0  0  0  0  0  0  0  0  0  0
    4.6198    0.1975   18.3650 C   0  0  0  0  0  0  0  0  0  0  0  0
    4.7777   -1.0514   18.9739 C   0  0  0  0  0  0  0  0  0  0  0  0
    6.2804   -2.8365   19.9496 C   0  0  0  0  0  0  0  0  0  0  0  0
    7.2532   -3.0086   20.6754 O   0  0  0  0  0  0  0  0  0  0  0  0
    5.3654   -3.8266   19.6560 N   0  0  0  0  0  0  0  0  0  0  0  0
    5.4709   -5.1521   20.2281 C   0  0  0  0  0  0  0  0  0  0  0  0
    6.3884   -6.0426   19.4100 C   0  0  0  0  0  0  0  0  0  0  0  0
    5.5635    2.3284   17.4106 C   0  0  0  0  0  0  0  0  0  0  0  0
  1  2  1  0
  2  3  2  0
  3  4  1  0
  4  5  2  0
  5  6  1  0
  6  1  2  0
  7  8  2  0
  7  9  1  0
  9 10  1  0
 10 11  1  0
  1  7  1  0
  4 12  1  0
M  END
>  <canonical_smiles>  (58) 
CCNC(=O)c1ccc(C)cc1

>  <geometry_score>  (58) 
16.640466581989024

>  <evidence>  (58) 
generated graph and model pose, not experimentally validated

$$$$
Gc27cb26209ad
     RDKit          3D

 21 23  0  0  0  0  0  0  0  0999 V2000
    8.1441   -2.2325   21.1350 C   0  0  0  0  0  0  0  0  0  0  0  0
    7.3934   -3.3492   21.5038 C   0  0  0  0  0  0  0  0  0  0  0  0
    7.8458   -4.2183   22.5083 C   0  0  0  0  0  0  0  0  0  0  0  0
    9.0556   -4.0086   23.1842 C   0  0  0  0  0  0  0  0  0  0  0  0
    9.7893   -2.8780   22.7973 C   0  0  0  0  0  0  0  0  0  0  0  0
    9.3470   -2.0025   21.7919 C   0  0  0  0  0  0  0  0  0  0  0  0
    7.6209   -1.4028   20.1216 N   0  0  0  0  0  0  0  0  0  0  0  0
    8.2152   -0.2847   19.5657 C   0  0  0  0  0  0  0  0  0  0  0  0
    9.3410    0.1425   19.7895 O   0  0  0  0  0  0  0  0  0  0  0  0
    7.3852    0.4316   18.5601 C   0  0  0  0  0  0  0  0  0  0  0  0
    8.0242    1.0097   17.4633 C   0  0  0  0  0  0  0  0  0  0  0  0
    7.2450    1.6751   16.5366 C   0  0  0  0  0  0  0  0  0  0  0  0
    5.9041    1.8011   16.6403 N   0  0  0  0  0  0  0  0  0  0  0  0
    5.3158    1.2552   17.7257 C   0  0  0  0  0  0  0  0  0  0  0  0
    6.0041    0.5661   18.7081 C   0  0  0  0  0  0  0  0  0  0  0  0
    9.4977   -4.8646   24.1746 N   0  0  0  0  0  0  0  0  0  0  0  0
   10.5001   -4.4544   25.1711 C   0  0  0  0  0  0  0  0  0  0  0  0
   10.3267   -5.2737   26.4617 C   0  0  0  0  0  0  0  0  0  0  0  0
   10.4488   -6.6914   26.2801 O   0  0  0  0  0  0  0  0  0  0  0  0
   10.0752   -7.1283   24.9662 C   0  0  0  0  0  0  0  0  0  0  0  0
    9.0101   -6.2477   24.2907 C   0  0  0  0  0  0  0  0  0  0  0  0
  1  2  1  0
  2  3  2  0
  3  4  1  0
  4  5  2  0
  5  6  1  0
  6  1  2  0
  7  8  1  0
  8  9  2  0
  8 10  1  0
 10 11  1  0
 11 12  2  0
 12 13  1  0
 13 14  2  0
 14 15  1  0
 15 10  2  0
  1  7  1  0
 16 17  1  0
 17 18  1  0
 18 19  1  0
 19 20  1  0
 20 21  1  0
 21 16  1  0
  4 16  1  0
M  END
>  <canonical_smiles>  (59) 
O=C(Nc1ccc(N2CCOCC2)cc1)c1ccncc1

>  <geometry_score>  (59) 
15.306147464637416

>  <evidence>  (59) 
generated graph and model pose, not experimentally validated

$$$$
G959bd44d144b
     RDKit          3D

 13 13  0  0  0  0  0  0  0  0999 V2000
    6.9481   -1.5770   19.7927 C   0  0  0  0  0  0  0  0  0  0  0  0
    7.8096   -0.5173   20.0857 C   0  0  0  0  0  0  0  0  0  0  0  0
    8.6174   -0.5829   21.2219 C   0  0  0  0  0  0  0  0  0  0  0  0
    8.5646   -1.6995   22.0694 C   0  0  0  0  0  0  0  0  0  0  0  0
    7.6783   -2.7455   21.7729 C   0  0  0  0  0  0  0  0  0  0  0  0
    6.8680   -2.6864   20.6381 C   0  0  0  0  0  0  0  0  0  0  0  0
    5.9049   -1.5003   18.3578 S   0  0  0  0  0  0  0  0  0  0  0  0
    4.6748   -2.1956   18.6659 O   0  0  0  0  0  0  0  0  0  0  0  0
    5.9112   -0.1419   17.8623 O   0  0  0  0  0  0  0  0  0  0  0  0
    6.7293   -2.4600   17.2602 N   0  0  0  0  0  0  0  0  0  0  0  0
    8.0824   -2.1149   16.8567 C   0  0  0  0  0  0  0  0  0  0  0  0
    9.4225   -1.7562   23.3088 C   0  0  0  0  0  0  0  0  0  0  0  0
    8.7204   -1.1445   24.5113 C   0  0  0  0  0  0  0  0  0  0  0  0
  1  2  1  0
  2  3  2  0
  3  4  1  0
  4  5  2  0
  5  6  1  0
  6  1  2  0
  7  8  2  0
  7  9  2  0
  7 10  1  0
 10 11  1  0
  1  7  1  0
 12 13  1  0
  4 12  1  0
M  END
>  <canonical_smiles>  (60) 
CCc1ccc(S(=O)(=O)NC)cc1

>  <geometry_score>  (60) 
13.953655811355498

>  <evidence>  (60) 
generated graph and model pose, not experimentally validated

$$$$
G92ae5eccf348
     RDKit          3D

 16 17  0  0  0  0  0  0  0  0999 V2000
    7.2829   -1.0341   19.5314 C   0  0  0  0  0  0  0  0  0  0  0  0
    6.7061   -1.1471   18.2696 C   0  0  0  0  0  0  0  0  0  0  0  0
    5.5504   -1.8892   18.1552 C   0  0  0  0  0  0  0  0  0  0  0  0
    4.9554   -2.5106   19.1958 N   0  0  0  0  0  0  0  0  0  0  0  0
    5.5265   -2.4094   20.4238 C   0  0  0  0  0  0  0  0  0  0  0  0
    6.6984   -1.6833   20.6219 C   0  0  0  0  0  0  0  0  0  0  0  0
    8.5366   -0.2467   19.6603 C   0  0  0  0  0  0  0  0  0  0  0  0
    9.2859   -0.1296   18.6975 O   0  0  0  0  0  0  0  0  0  0  0  0
    8.7691    0.3507   20.8810 N   0  0  0  0  0  0  0  0  0  0  0  0
    9.9576    1.1354   21.1028 C   0  0  0  0  0  0  0  0  0  0  0  0
    4.8357   -3.1318   21.5137 C   0  0  0  0  0  0  0  0  0  0  0  0
    4.1375   -4.3257   21.2516 C   0  0  0  0  0  0  0  0  0  0  0  0
    3.4833   -5.0294   22.2673 C   0  0  0  0  0  0  0  0  0  0  0  0
    3.5080   -4.5498   23.5728 C   0  0  0  0  0  0  0  0  0  0  0  0
    4.1811   -3.3663   23.8605 C   0  0  0  0  0  0  0  0  0  0  0  0
    4.8354   -2.6647   22.8417 C   0  0  0  0  0  0  0  0  0  0  0  0
  1  2  1  0
  2  3  2  0
  3  4  1  0
  4  5  2  0
  5  6  1  0
  6  1  2  0
  7  8  2  0
  7  9  1  0
  9 10  1  0
  1  7  1  0
 11 12  2  0
 12 13  1  0
 13 14  2  0
 14 15  1  0
 15 16  2  0
 16 11  1  0
  5 11  1  0
M  END
>  <canonical_smiles>  (61) 
CNC(=O)c1ccnc(-c2ccccc2)c1

>  <geometry_score>  (61) 
14.299691483336769

>  <evidence>  (61) 
generated graph and model pose, not experimentally validated

$$$$
Gd9500523e986
     RDKit          3D

 11 11  0  0  0  0  0  0  0  0999 V2000
    6.8536   -0.4542   20.0268 C   0  0  0  0  0  0  0  0  0  0  0  0
    7.8463    0.0731   19.1952 C   0  0  0  0  0  0  0  0  0  0  0  0
    8.7698    0.9981   19.6934 C   0  0  0  0  0  0  0  0  0  0  0  0
    8.6995    1.3944   21.0218 C   0  0  0  0  0  0  0  0  0  0  0  0
    7.7220    0.8832   21.8643 C   0  0  0  0  0  0  0  0  0  0  0  0
    6.7994   -0.0408   21.3668 C   0  0  0  0  0  0  0  0  0  0  0  0
    5.8865   -1.3890   19.6042 N   0  0  0  0  0  0  0  0  0  0  0  0
    5.7408   -1.9390   18.3428 C   0  0  0  0  0  0  0  0  0  0  0  0
    6.4281   -1.7150   17.3537 O   0  0  0  0  0  0  0  0  0  0  0  0
    4.5842   -2.9050   18.2821 C   0  0  0  0  0  0  0  0  0  0  0  0
    9.5844    2.2800   21.4971 F   0  0  0  0  0  0  0  0  0  0  0  0
  1  2  1  0
  2  3  2  0
  3  4  1  0
  4  5  2  0
  5  6  1  0
  6  1  2  0
  7  8  1  0
  8  9  2  0
  8 10  1  0
  1  7  1  0
  4 11  1  0
M  END
>  <canonical_smiles>  (62) 
CC(=O)Nc1ccc(F)cc1

>  <geometry_score>  (62) 
14.47533691546431

>  <evidence>  (62) 
generated graph and model pose, not experimentally validated

$$$$
G702c102ce253
     RDKit          3D

 17 18  0  0  0  0  0  0  0  0999 V2000
    8.8199   -0.0468   19.3600 C   0  0  0  0  0  0  0  0  0  0  0  0
    8.2442    1.1946   19.6231 C   0  0  0  0  0  0  0  0  0  0  0  0
    7.2129    1.6817   18.8111 C   0  0  0  0  0  0  0  0  0  0  0  0
    6.7423    0.9409   17.7265 C   0  0  0  0  0  0  0  0  0  0  0  0
    7.3161   -0.2993   17.4570 C   0  0  0  0  0  0  0  0  0  0  0  0
    8.3488   -0.7877   18.2688 C   0  0  0  0  0  0  0  0  0  0  0  0
    9.8659   -0.6109   20.1204 N   0  0  0  0  0  0  0  0  0  0  0  0
   10.4421   -0.0920   21.2657 C   0  0  0  0  0  0  0  0  0  0  0  0
   10.0935    0.9082   21.8803 O   0  0  0  0  0  0  0  0  0  0  0  0
   11.5804   -0.8817   21.8076 C   0  0  0  0  0  0  0  0  0  0  0  0
   12.5045   -1.5088   20.9708 C   0  0  0  0  0  0  0  0  0  0  0  0
   13.5345   -2.2157   21.5651 C   0  0  0  0  0  0  0  0  0  0  0  0
   13.6927   -2.3299   22.9008 N   0  0  0  0  0  0  0  0  0  0  0  0
   12.7966   -1.6921   23.6849 C   0  0  0  0  0  0  0  0  0  0  0  0
   11.7350   -0.9583   23.1917 C   0  0  0  0  0  0  0  0  0  0  0  0
    5.7343    1.5343   17.0198 O   0  0  0  0  0  0  0  0  0  0  0  0
    5.2131    0.8127   15.9112 C   0  0  0  0  0  0  0  0  0  0  0  0
  1  2  1  0
  2  3  2  0
  3  4  1  0
  4  5  2  0
  5  6  1  0
  6  1  2  0
  7  8  1  0
  8  9  2  0
  8 10  1  0
 10 11  1  0
 11 12  2  0
 12 13  1  0
 13 14  2  0
 14 15  1  0
 15 10  2  0
  1  7  1  0
 16 17  1  0
  4 16  1  0
M  END
>  <canonical_smiles>  (63) 
COc1ccc(NC(=O)c2ccncc2)cc1

>  <geometry_score>  (63) 
9.862912177122187

>  <evidence>  (63) 
generated graph and model pose, not experimentally validated

$$$$
G1348299518ab
     RDKit          3D

 15 16  0  0  0  0  0  0  0  0999 V2000
    9.5575   -4.0573   24.2277 C   0  0  0  0  0  0  0  0  0  0  0  0
   10.0027   -5.1815   24.9152 C   0  0  0  0  0  0  0  0  0  0  0  0
    9.4878   -6.4036   24.5350 C   0  0  0  0  0  0  0  0  0  0  0  0
    8.5780   -6.5594   23.5471 N   0  0  0  0  0  0  0  0  0  0  0  0
    8.1317   -5.4480   22.9149 C   0  0  0  0  0  0  0  0  0  0  0  0
    8.5922   -4.1769   23.2287 C   0  0  0  0  0  0  0  0  0  0  0  0
   10.0775   -2.7327   24.6238 C   0  0  0  0  0  0  0  0  0  0  0  0
    9.9858   -2.4131   25.8062 O   0  0  0  0  0  0  0  0  0  0  0  0
   10.6495   -1.9185   23.6563 N   0  0  0  0  0  0  0  0  0  0  0  0
   11.0582   -0.5640   24.0306 C   0  0  0  0  0  0  0  0  0  0  0  0
   11.1140    0.3511   22.8050 C   0  0  0  0  0  0  0  0  0  0  0  0
   11.9928   -0.1151   21.7694 O   0  0  0  0  0  0  0  0  0  0  0  0
   12.2191   -1.5310   21.7865 C   0  0  0  0  0  0  0  0  0  0  0  0
   11.0154   -2.3309   22.2958 C   0  0  0  0  0  0  0  0  0  0  0  0
    7.0947   -5.6331   21.8481 C   0  0  0  0  0  0  0  0  0  0  0  0
  1  2  1  0
  2  3  2  0
  3  4  1  0
  4  5  2  0
  5  6  1  0
  6  1  2  0
  7  8  2  0
  7  9  1  0
  9 10  1  0
 10 11  1  0
 11 12  1  0
 12 13  1  0
 13 14  1  0
 14  9  1  0
  1  7  1  0
  5 15  1  0
M  END
>  <canonical_smiles>  (64) 
Cc1cc(C(=O)N2CCOCC2)ccn1

>  <geometry_score>  (64) 
12.502029646244024

>  <evidence>  (64) 
generated graph and model pose, not experimentally validated

$$$$
Gc1f313684ae9
     RDKit          3D

 16 17  0  0  0  0  0  0  0  0999 V2000
    5.4212    2.0864   21.0138 C   0  0  0  0  0  0  0  0  0  0  0  0
    5.3874    1.7974   22.3817 C   0  0  0  0  0  0  0  0  0  0  0  0
    5.2823    2.8383   23.3096 C   0  0  0  0  0  0  0  0  0  0  0  0
    5.2006    4.1688   22.8882 C   0  0  0  0  0  0  0  0  0  0  0  0
    5.2173    4.4550   21.5230 C   0  0  0  0  0  0  0  0  0  0  0  0
    5.3221    3.4170   20.5898 C   0  0  0  0  0  0  0  0  0  0  0  0
    5.5288    1.0215   19.9790 C   0  0  0  0  0  0  0  0  0  0  0  0
    5.0483    1.1975   18.8652 O   0  0  0  0  0  0  0  0  0  0  0  0
    6.2082   -0.1224   20.3433 N   0  0  0  0  0  0  0  0  0  0  0  0
    6.3437   -1.2476   19.4315 C   0  0  0  0  0  0  0  0  0  0  0  0
    5.1143   -2.1524   19.4689 C   0  0  0  0  0  0  0  0  0  0  0  0
    5.3154   -3.0181   20.7094 C   0  0  0  0  0  0  0  0  0  0  0  0
    6.8253   -3.0802   20.9406 C   0  0  0  0  0  0  0  0  0  0  0  0
    7.4583   -2.1931   19.8700 C   0  0  0  0  0  0  0  0  0  0  0  0
    5.1030    5.0822   23.9010 O   0  0  0  0  0  0  0  0  0  0  0  0
    4.9968    6.4499   23.5252 C   0  0  0  0  0  0  0  0  0  0  0  0
  1  2  1  0
  2  3  2  0
  3  4  1  0
  4  5  2  0
  5  6  1  0
  6  1  2  0
  7  8  2  0
  7  9  1  0
  9 10  1  0
 10 11  1  0
 11 12  1  0
 12 13  1  0
 13 14  1  0
 14 10  1  0
  1  7  1  0
 15 16  1  0
  4 15  1  0
M  END
>  <canonical_smiles>  (65) 
COc1ccc(C(=O)NC2CCCC2)cc1

>  <geometry_score>  (65) 
8.061953388800955

>  <evidence>  (65) 
generated graph and model pose, not experimentally validated

$$$$
G4b7487d77b5b
     RDKit          3D

 20 22  0  0  0  0  0  0  0  0999 V2000
    6.9251   -2.6103   22.3748 C   0  0  0  0  0  0  0  0  0  0  0  0
    8.2356   -3.0118   22.6525 C   0  0  0  0  0  0  0  0  0  0  0  0
    9.0966   -2.1574   23.3520 C   0  0  0  0  0  0  0  0  0  0  0  0
    8.6685   -0.8934   23.7927 C   0  0  0  0  0  0  0  0  0  0  0  0
    7.3447   -0.5127   23.5195 C   0  0  0  0  0  0  0  0  0  0  0  0
    6.4793   -1.3631   22.8235 C   0  0  0  0  0  0  0  0  0  0  0  0
    5.9669   -3.4805   21.6394 C   0  0  0  0  0  0  0  0  0  0  0  0
    4.7639   -3.3871   21.8552 O   0  0  0  0  0  0  0  0  0  0  0  0
    6.5096   -4.3450   20.7113 N   0  0  0  0  0  0  0  0  0  0  0  0
    5.6770   -5.2565   19.9575 C   0  0  0  0  0  0  0  0  0  0  0  0
    6.3964   -5.8498   18.7520 C   0  0  0  0  0  0  0  0  0  0  0  0
    5.5299   -7.0452   18.3865 C   0  0  0  0  0  0  0  0  0  0  0  0
    4.9870   -7.5723   19.7138 C   0  0  0  0  0  0  0  0  0  0  0  0
    5.2816   -6.4962   20.7583 C   0  0  0  0  0  0  0  0  0  0  0  0
    9.5776    0.0013   24.5259 C   0  0  0  0  0  0  0  0  0  0  0  0
   10.2471   -0.4299   25.6772 C   0  0  0  0  0  0  0  0  0  0  0  0
   11.0940    0.4500   26.3335 C   0  0  0  0  0  0  0  0  0  0  0  0
   11.3227    1.7155   25.9274 N   0  0  0  0  0  0  0  0  0  0  0  0
   10.6713    2.1195   24.8178 C   0  0  0  0  0  0  0  0  0  0  0  0
    9.8032    1.3145   24.0964 C   0  0  0  0  0  0  0  0  0  0  0  0
  1  2  1  0
  2  3  2  0
  3  4  1  0
  4  5  2  0
  5  6  1  0
  6  1  2  0
  7  8  2  0
  7  9  1  0
  9 10  1  0
 10 11  1  0
 11 12  1  0
 12 13  1  0
 13 14  1  0
 14 10  1  0
  1  7  1  0
 15 16  1  0
 16 17  2  0
 17 18  1  0
 18 19  2  0
 19 20  1  0
 20 15  2  0
  4 15  1  0
M  END
>  <canonical_smiles>  (66) 
O=C(NC1CCCC1)c1ccc(-c2ccncc2)cc1

>  <geometry_score>  (66) 
9.739527724719633

>  <evidence>  (66) 
generated graph and model pose, not experimentally validated

$$$$
G7c2ab090eede
     RDKit          3D

 15 16  0  0  0  0  0  0  0  0999 V2000
    7.6946    3.3826   21.6777 C   0  0  0  0  0  0  0  0  0  0  0  0
    8.0404    2.2303   22.3909 C   0  0  0  0  0  0  0  0  0  0  0  0
    7.6879    0.9650   21.9109 C   0  0  0  0  0  0  0  0  0  0  0  0
    6.9884    0.8257   20.7117 C   0  0  0  0  0  0  0  0  0  0  0  0
    6.6379    1.9712   20.0019 C   0  0  0  0  0  0  0  0  0  0  0  0
    6.9905    3.2416   20.4820 C   0  0  0  0  0  0  0  0  0  0  0  0
    8.0851    4.6210   22.2257 N   0  0  0  0  0  0  0  0  0  0  0  0
    7.8608    5.8803   21.7086 C   0  0  0  0  0  0  0  0  0  0  0  0
    7.2768    6.1527   20.6693 O   0  0  0  0  0  0  0  0  0  0  0  0
    8.3969    7.0197   22.5203 C   0  0  0  0  0  0  0  0  0  0  0  0
    8.4019    7.0173   24.0313 C   0  0  0  0  0  0  0  0  0  0  0  0
    9.7010    6.9412   23.2796 C   0  0  0  0  0  0  0  0  0  0  0  0
    6.7075   -0.4650   20.3656 O   0  0  0  0  0  0  0  0  0  0  0  0
    6.1065   -0.7224   19.0974 C   0  0  0  0  0  0  0  0  0  0  0  0
    4.5917   -0.6820   19.1996 C   0  0  0  0  0  0  0  0  0  0  0  0
  1  2  1  0
  2  3  2  0
  3  4  1  0
  4  5  2  0
  5  6  1  0
  6  1  2  0
  7  8  1  0
  8  9  2  0
  8 10  1  0
 10 11  1  0
 11 12  1  0
 12 10  1  0
  1  7  1  0
 13 14  1  0
 14 15  1  0
  4 13  1  0
M  END
>  <canonical_smiles>  (67) 
CCOc1ccc(NC(=O)C2CC2)cc1

>  <geometry_score>  (67) 
12.503326995371626

>  <evidence>  (67) 
generated graph and model pose, not experimentally validated

$$$$
Gd1dde8997c2f
     RDKit          3D

 18 20  0  0  0  0  0  0  0  0999 V2000
    5.3736   -2.9019   19.4715 C   0  0  0  0  0  0  0  0  0  0  0  0
    5.9656   -3.0098   18.2206 C   0  0  0  0  0  0  0  0  0  0  0  0
    6.1016   -1.8630   17.4598 C   0  0  0  0  0  0  0  0  0  0  0  0
    5.6965   -0.6391   17.8596 N   0  0  0  0  0  0  0  0  0  0  0  0
    5.1306   -0.5285   19.0855 C   0  0  0  0  0  0  0  0  0  0  0  0
    4.9511   -1.6420   19.9075 C   0  0  0  0  0  0  0  0  0  0  0  0
    5.1636   -3.9938   20.3419 N   0  0  0  0  0  0  0  0  0  0  0  0
    5.4977   -5.3158   20.1245 C   0  0  0  0  0  0  0  0  0  0  0  0
    6.0428   -5.7753   19.1311 O   0  0  0  0  0  0  0  0  0  0  0  0
    5.1498   -6.2652   21.2288 C   0  0  0  0  0  0  0  0  0  0  0  0
    3.8974   -6.1268   22.0629 C   0  0  0  0  0  0  0  0  0  0  0  0
    5.2427   -5.8907   22.6898 C   0  0  0  0  0  0  0  0  0  0  0  0
    4.7119    0.8340   19.4721 C   0  0  0  0  0  0  0  0  0  0  0  0
    4.2801    1.7505   18.5021 C   0  0  0  0  0  0  0  0  0  0  0  0
    3.8867    3.0216   18.8894 C   0  0  0  0  0  0  0  0  0  0  0  0
    3.8929    3.4506   20.1674 N   0  0  0  0  0  0  0  0  0  0  0  0
    4.3248    2.5721   21.0931 C   0  0  0  0  0  0  0  0  0  0  0  0
    4.7361    1.2792   20.8013 C   0  0  0  0  0  0  0  0  0  0  0  0
  1  2  1  0
  2  3  2  0
  3  4  1  0
  4  5  2  0
  5  6  1  0
  6  1  2  0
  7  8  1  0
  8  9  2  0
  8 10  1  0
 10 11  1  0
 11 12  1  0
 12 10  1  0
  1  7  1  0
 13 14  1  0
 14 15  2  0
 15 16  1  0
 16 17  2  0
 17 18  1  0
 18 13  2  0
  5 13  1  0
M  END
>  <canonical_smiles>  (68) 
O=C(Nc1ccnc(-c2ccncc2)c1)C1CC1

>  <geometry_score>  (68) 
16.217130254808716

>  <evidence>  (68) 
generated graph and model pose, not experimentally validated

$$$$
G87d40d3b055c
     RDKit          3D

 16 17  0  0  0  0  0  0  0  0999 V2000
    6.5172   -0.9709   19.3258 C   0  0  0  0  0  0  0  0  0  0  0  0
    7.8969   -1.1425   19.2018 C   0  0  0  0  0  0  0  0  0  0  0  0
    8.6026   -0.1897   18.4887 C   0  0  0  0  0  0  0  0  0  0  0  0
    8.0326    0.8874   17.9121 N   0  0  0  0  0  0  0  0  0  0  0  0
    6.7003    1.0340   18.0719 C   0  0  0  0  0  0  0  0  0  0  0  0
    5.9046    0.1474   18.7646 C   0  0  0  0  0  0  0  0  0  0  0  0
    5.6727   -1.9317   20.0827 C   0  0  0  0  0  0  0  0  0  0  0  0
    4.7263   -1.4811   20.7154 O   0  0  0  0  0  0  0  0  0  0  0  0
    6.0387   -3.2586   19.9547 N   0  0  0  0  0  0  0  0  0  0  0  0
    5.4595   -4.3704   20.6038 C   0  0  0  0  0  0  0  0  0  0  0  0
    4.4415   -4.2772   21.5542 C   0  0  0  0  0  0  0  0  0  0  0  0
    3.9258   -5.4297   22.1564 C   0  0  0  0  0  0  0  0  0  0  0  0
    4.4246   -6.6843   21.8150 C   0  0  0  0  0  0  0  0  0  0  0  0
    5.4416   -6.7888   20.8706 C   0  0  0  0  0  0  0  0  0  0  0  0
    5.9569   -5.6374   20.2690 C   0  0  0  0  0  0  0  0  0  0  0  0
    6.1259    2.1082   17.5132 F   0  0  0  0  0  0  0  0  0  0  0  0
  1  2  1  0
  2  3  2  0
  3  4  1  0
  4  5  2  0
  5  6  1  0
  6  1  2  0
  7  8  2  0
  7  9  1  0
  9 10  1  0
 10 11  2  0
 11 12  1  0
 12 13  2  0
 13 14  1  0
 14 15  2  0
 15 10  1  0
  1  7  1  0
  5 16  1  0
M  END
>  <canonical_smiles>  (69) 
O=C(Nc1ccccc1)c1ccnc(F)c1

>  <geometry_score>  (69) 
17.655396178196717

>  <evidence>  (69) 
generated graph and model pose, not experimentally validated

$$$$
Ge8c3a23f4ba7
     RDKit          3D

 19 20  0  0  0  0  0  0  0  0999 V2000
    7.1080   -1.6548   20.7482 C   0  0  0  0  0  0  0  0  0  0  0  0
    6.1895   -2.0138   19.7539 C   0  0  0  0  0  0  0  0  0  0  0  0
    6.0055   -1.2086   18.6246 C   0  0  0  0  0  0  0  0  0  0  0  0
    6.7452   -0.0298   18.4626 C   0  0  0  0  0  0  0  0  0  0  0  0
    7.6593    0.3294   19.4618 C   0  0  0  0  0  0  0  0  0  0  0  0
    7.8413   -0.4783   20.5912 C   0  0  0  0  0  0  0  0  0  0  0  0
    7.2366   -2.5245   21.8518 N   0  0  0  0  0  0  0  0  0  0  0  0
    8.0279   -2.3441   22.9718 C   0  0  0  0  0  0  0  0  0  0  0  0
    8.6961   -1.3565   23.2512 O   0  0  0  0  0  0  0  0  0  0  0  0
    8.0104   -3.4723   23.9414 C   0  0  0  0  0  0  0  0  0  0  0  0
    7.9566   -4.8021   23.5217 C   0  0  0  0  0  0  0  0  0  0  0  0
    7.9514   -5.7845   24.4956 C   0  0  0  0  0  0  0  0  0  0  0  0
    7.9961   -5.5276   25.8199 N   0  0  0  0  0  0  0  0  0  0  0  0
    8.0719   -4.2323   26.1951 C   0  0  0  0  0  0  0  0  0  0  0  0
    8.0863   -3.1777   25.3027 C   0  0  0  0  0  0  0  0  0  0  0  0
    6.5329    0.8529   17.2574 C   0  0  0  0  0  0  0  0  0  0  0  0
    5.5323    1.7563   17.4469 F   0  0  0  0  0  0  0  0  0  0  0  0
    7.6354    1.5783   16.9202 F   0  0  0  0  0  0  0  0  0  0  0  0
    6.1951    0.1515   16.1386 F   0  0  0  0  0  0  0  0  0  0  0  0
  1  2  1  0
  2  3  2  0
  3  4  1  0
  4  5  2  0
  5  6  1  0
  6  1  2  0
  7  8  1  0
  8  9  2  0
  8 10  1  0
 10 11  1  0
 11 12  2  0
 12 13  1  0
 13 14  2  0
 14 15  1  0
 15 10  2  0
  1  7  1  0
 16 17  1  0
 16 18  1  0
 16 19  1  0
  4 16  1  0
M  END
>  <canonical_smiles>  (70) 
O=C(Nc1ccc(C(F)(F)F)cc1)c1ccncc1

>  <geometry_score>  (70) 
12.553792995883121

>  <evidence>  (70) 
generated graph and model pose, not experimentally validated

$$$$
G5f02c6672059
     RDKit          3D

 12 12  0  0  0  0  0  0  0  0999 V2000
    5.6927   -1.2945   20.0701 C   0  0  0  0  0  0  0  0  0  0  0  0
    6.0143    0.0379   19.7706 C   0  0  0  0  0  0  0  0  0  0  0  0
    6.0897    0.4535   18.4385 C   0  0  0  0  0  0  0  0  0  0  0  0
    5.8366   -0.4566   17.4172 C   0  0  0  0  0  0  0  0  0  0  0  0
    5.5015   -1.7758   17.6994 C   0  0  0  0  0  0  0  0  0  0  0  0
    5.4240   -2.1956   19.0287 C   0  0  0  0  0  0  0  0  0  0  0  0
    5.5939   -1.7874   21.4723 C   0  0  0  0  0  0  0  0  0  0  0  0
    4.8551   -2.7277   21.7403 O   0  0  0  0  0  0  0  0  0  0  0  0
    6.3931   -1.1558   22.4022 N   0  0  0  0  0  0  0  0  0  0  0  0
    6.3993   -1.5709   23.7894 C   0  0  0  0  0  0  0  0  0  0  0  0
    6.8945   -0.4617   24.6970 C   0  0  0  0  0  0  0  0  0  0  0  0
    5.9096   -0.0524   16.1427 F   0  0  0  0  0  0  0  0  0  0  0  0
  1  2  1  0
  2  3  2  0
  3  4  1  0
  4  5  2  0
  5  6  1  0
  6  1  2  0
  7  8  2  0
  7  9  1  0
  9 10  1  0
 10 11  1  0
  1  7  1  0
  4 12  1  0
M  END
>  <canonical_smiles>  (71) 
CCNC(=O)c1ccc(F)cc1

>  <geometry_score>  (71) 
16.519563124059818

>  <evidence>  (71) 
generated graph and model pose, not experimentally validated

$$$$
G4a19fd7d314d
     RDKit          3D

 17 18  0  0  0  0  0  0  0  0999 V2000
    8.7024    0.1053   19.7178 C   0  0  0  0  0  0  0  0  0  0  0  0
    8.4897    1.2471   18.9356 C   0  0  0  0  0  0  0  0  0  0  0  0
    7.3066    1.4042   18.2069 C   0  0  0  0  0  0  0  0  0  0  0  0
    6.3088    0.4248   18.2546 C   0  0  0  0  0  0  0  0  0  0  0  0
    6.5243   -0.7184   19.0311 C   0  0  0  0  0  0  0  0  0  0  0  0
    7.7098   -0.8740   19.7597 C   0  0  0  0  0  0  0  0  0  0  0  0
    9.9202    0.0267   20.4263 N   0  0  0  0  0  0  0  0  0  0  0  0
   10.3704   -1.0250   21.2035 C   0  0  0  0  0  0  0  0  0  0  0  0
    9.8361   -2.1174   21.3484 O   0  0  0  0  0  0  0  0  0  0  0  0
   11.6681   -0.7864   21.8910 C   0  0  0  0  0  0  0  0  0  0  0  0
   12.0038    0.4624   22.4156 C   0  0  0  0  0  0  0  0  0  0  0  0
   13.2296    0.5878   23.0444 C   0  0  0  0  0  0  0  0  0  0  0  0
   14.1112   -0.4256   23.1777 N   0  0  0  0  0  0  0  0  0  0  0  0
   13.7484   -1.6283   22.6812 C   0  0  0  0  0  0  0  0  0  0  0  0
   12.5472   -1.8592   22.0389 C   0  0  0  0  0  0  0  0  0  0  0  0
    5.0488    0.5845   17.4483 C   0  0  0  0  0  0  0  0  0  0  0  0
    5.2975    0.3003   16.0784 O   0  0  0  0  0  0  0  0  0  0  0  0
  1  2  1  0
  2  3  2  0
  3  4  1  0
  4  5  2  0
  5  6  1  0
  6  1  2  0
  7  8  1  0
  8  9  2  0
  8 10  1  0
 10 11  1  0
 11 12  2  0
 12 13  1  0
 13 14  2  0
 14 15  1  0
 15 10  2  0
  1  7  1  0
 16 17  1  0
  4 16  1  0
M  END
>  <canonical_smiles>  (72) 
O=C(Nc1ccc(CO)cc1)c1ccncc1

>  <geometry_score>  (72) 
14.877758090230571

>  <evidence>  (72) 
generated graph and model pose, not experimentally validated

$$$$
G6d100609d100
     RDKit          3D

 19 20  0  0  0  0  0  0  0  0999 V2000
    6.8893   -1.7279   20.2196 C   0  0  0  0  0  0  0  0  0  0  0  0
    7.9538   -1.9923   21.0918 C   0  0  0  0  0  0  0  0  0  0  0  0
    7.7863   -2.8728   22.1655 C   0  0  0  0  0  0  0  0  0  0  0  0
    6.5545   -3.5096   22.3613 C   0  0  0  0  0  0  0  0  0  0  0  0
    5.4911   -3.2462   21.4865 C   0  0  0  0  0  0  0  0  0  0  0  0
    5.6579   -2.3663   20.4126 C   0  0  0  0  0  0  0  0  0  0  0  0
    7.1170   -0.7844   19.0884 C   0  0  0  0  0  0  0  0  0  0  0  0
    8.2251   -0.7715   18.5665 O   0  0  0  0  0  0  0  0  0  0  0  0
    6.0352    0.0166   18.7727 N   0  0  0  0  0  0  0  0  0  0  0  0
    5.9419    0.9544   17.7225 C   0  0  0  0  0  0  0  0  0  0  0  0
    4.7577    1.6988   17.6330 C   0  0  0  0  0  0  0  0  0  0  0  0
    4.5835    2.6445   16.6189 C   0  0  0  0  0  0  0  0  0  0  0  0
    5.5918    2.8539   15.6826 C   0  0  0  0  0  0  0  0  0  0  0  0
    6.7710    2.1172   15.7616 C   0  0  0  0  0  0  0  0  0  0  0  0
    6.9453    1.1705   16.7767 C   0  0  0  0  0  0  0  0  0  0  0  0
    6.3194   -4.4512   23.4906 C   0  0  0  0  0  0  0  0  0  0  0  0
    5.1901   -4.5867   23.9476 O   0  0  0  0  0  0  0  0  0  0  0  0
    7.4136   -5.1568   23.9431 N   0  0  0  0  0  0  0  0  0  0  0  0
    7.2902   -6.0952   25.0296 C   0  0  0  0  0  0  0  0  0  0  0  0
  1  2  1  0
  2  3  2  0
  3  4  1  0
  4  5  2  0
  5  6  1  0
  6  1  2  0
  7  8  2  0
  7  9  1  0
  9 10  1  0
 10 11  2  0
 11 12  1  0
 12 13  2  0
 13 14  1  0
 14 15  2  0
 15 10  1  0
  1  7  1  0
 16 17  2  0
 16 18  1  0
 18 19  1  0
  4 16  1  0
M  END
>  <canonical_smiles>  (73) 
CNC(=O)c1ccc(C(=O)Nc2ccccc2)cc1

>  <geometry_score>  (73) 
12.272850359458642

>  <evidence>  (73) 
generated graph and model pose, not experimentally validated

$$$$
G7929f0a78c81
     RDKit          3D

 16 17  0  0  0  0  0  0  0  0999 V2000
    9.9993    2.3434   21.6138 C   0  0  0  0  0  0  0  0  0  0  0  0
   10.5244    3.6109   21.9089 C   0  0  0  0  0  0  0  0  0  0  0  0
   11.7613    3.7379   22.5463 C   0  0  0  0  0  0  0  0  0  0  0  0
   12.4729    2.5971   22.8911 C   0  0  0  0  0  0  0  0  0  0  0  0
   11.9693    1.3345   22.6108 C   0  0  0  0  0  0  0  0  0  0  0  0
   10.7311    1.2072   21.9725 C   0  0  0  0  0  0  0  0  0  0  0  0
    8.7425    2.3018   20.9740 N   0  0  0  0  0  0  0  0  0  0  0  0
    8.0634    1.1795   20.5349 C   0  0  0  0  0  0  0  0  0  0  0  0
    8.4673    0.0234   20.5433 O   0  0  0  0  0  0  0  0  0  0  0  0
    6.7182    1.4451   19.9578 C   0  0  0  0  0  0  0  0  0  0  0  0
    5.8717    2.4218   20.4842 C   0  0  0  0  0  0  0  0  0  0  0  0
    4.6362    2.5928   19.8859 C   0  0  0  0  0  0  0  0  0  0  0  0
    4.2086    1.8705   18.8289 N   0  0  0  0  0  0  0  0  0  0  0  0
    5.0398    0.9163   18.3565 C   0  0  0  0  0  0  0  0  0  0  0  0
    6.2915    0.6638   18.8839 C   0  0  0  0  0  0  0  0  0  0  0  0
   13.6581    2.7174   23.5026 F   0  0  0  0  0  0  0  0  0  0  0  0
  1  2  1  0
  2  3  2  0
  3  4  1  0
  4  5  2  0
  5  6  1  0
  6  1  2  0
  7  8  1  0
  8  9  2  0
  8 10  1  0
 10 11  1  0
 11 12  2  0
 12 13  1  0
 13 14  2  0
 14 15  1  0
 15 10  2  0
  1  7  1  0
  4 16  1  0
M  END
>  <canonical_smiles>  (74) 
O=C(Nc1ccc(F)cc1)c1ccncc1

>  <geometry_score>  (74) 
14.76817804716347

>  <evidence>  (74) 
generated graph and model pose, not experimentally validated

$$$$
Gf464d5be2e5c
     RDKit          3D

 12 12  0  0  0  0  0  0  0  0999 V2000
    9.1490   -1.7954   21.3968 C   0  0  0  0  0  0  0  0  0  0  0  0
    8.2232   -1.4406   20.4095 C   0  0  0  0  0  0  0  0  0  0  0  0
    6.8505   -1.6060   20.6288 C   0  0  0  0  0  0  0  0  0  0  0  0
    6.4091   -2.1506   21.8401 C   0  0  0  0  0  0  0  0  0  0  0  0
    7.3295   -2.5046   22.8264 C   0  0  0  0  0  0  0  0  0  0  0  0
    8.6973   -2.3239   22.6070 C   0  0  0  0  0  0  0  0  0  0  0  0
   10.4551   -1.5780   21.0520 O   0  0  0  0  0  0  0  0  0  0  0  0
   11.4498   -1.9452   22.0071 C   0  0  0  0  0  0  0  0  0  0  0  0
   12.8100   -1.6318   21.4099 C   0  0  0  0  0  0  0  0  0  0  0  0
    5.8289   -1.2435   19.6101 C   0  0  0  0  0  0  0  0  0  0  0  0
    4.6947   -1.7049   19.6479 O   0  0  0  0  0  0  0  0  0  0  0  0
    6.1822   -0.3504   18.6381 N   0  0  0  0  0  0  0  0  0  0  0  0
  1  2  2  0
  2  3  1  0
  3  4  2  0
  4  5  1  0
  5  6  2  0
  6  1  1  0
  7  8  1  0
  8  9  1  0
  1  7  1  0
 10 11  2  0
 10 12  1  0
  3 10  1  0
M  END
>  <canonical_smiles>  (75) 
CCOc1cccc(C(N)=O)c1

>  <geometry_score>  (75) 
13.827099831753904

>  <evidence>  (75) 
generated graph and model pose, not experimentally validated

$$$$
G9e48c99f199b
     RDKit          3D

 14 14  0  0  0  0  0  0  0  0999 V2000
    8.9290    0.3695   21.1660 C   0  0  0  0  0  0  0  0  0  0  0  0
    8.7591    0.7739   19.8367 C   0  0  0  0  0  0  0  0  0  0  0  0
    7.4819    1.0508   19.3340 C   0  0  0  0  0  0  0  0  0  0  0  0
    6.3626    0.9191   20.1546 C   0  0  0  0  0  0  0  0  0  0  0  0
    6.5329    0.4938   21.4761 C   0  0  0  0  0  0  0  0  0  0  0  0
    7.8058    0.2160   21.9841 C   0  0  0  0  0  0  0  0  0  0  0  0
   10.3091    0.0867   21.6496 C   0  0  0  0  0  0  0  0  0  0  0  0
   11.1801   -0.2533   20.8570 O   0  0  0  0  0  0  0  0  0  0  0  0
   10.5356    0.2671   22.9984 N   0  0  0  0  0  0  0  0  0  0  0  0
   11.8459    0.0497   23.5742 C   0  0  0  0  0  0  0  0  0  0  0  0
   11.7584   -0.2183   25.0641 C   0  0  0  0  0  0  0  0  0  0  0  0
    5.0637    1.1491   19.8002 O   0  0  0  0  0  0  0  0  0  0  0  0
    4.7846    1.6849   18.5076 C   0  0  0  0  0  0  0  0  0  0  0  0
    4.6135    0.5729   17.4873 C   0  0  0  0  0  0  0  0  0  0  0  0
  1  2  1  0
  2  3  2  0
  3  4  1  0
  4  5  2  0
  5  6  1  0
  6  1  2  0
  7  8  2  0
  7  9  1  0
  9 10  1  0
 10 11  1  0
  1  7  1  0
 12 13  1  0
 13 14  1  0
  4 12  1  0
M  END
>  <canonical_smiles>  (76) 
CCNC(=O)c1ccc(OCC)cc1

>  <geometry_score>  (76) 
11.489129254372443

>  <evidence>  (76) 
generated graph and model pose, not experimentally validated

$$$$
G9443184392f3
     RDKit          3D

 18 19  0  0  0  0  0  0  0  0999 V2000
    5.9186   -1.5621   19.0227 C   0  0  0  0  0  0  0  0  0  0  0  0
    6.8869   -1.4834   18.0124 C   0  0  0  0  0  0  0  0  0  0  0  0
    7.1352   -0.2629   17.3731 C   0  0  0  0  0  0  0  0  0  0  0  0
    6.4245    0.8852   17.7490 C   0  0  0  0  0  0  0  0  0  0  0  0
    5.4579    0.8017   18.7599 C   0  0  0  0  0  0  0  0  0  0  0  0
    5.2140   -0.4146   19.4031 C   0  0  0  0  0  0  0  0  0  0  0  0
    5.6338   -2.8407   19.7314 C   0  0  0  0  0  0  0  0  0  0  0  0
    5.4070   -2.7942   20.9336 O   0  0  0  0  0  0  0  0  0  0  0  0
    5.6260   -3.9601   18.9197 N   0  0  0  0  0  0  0  0  0  0  0  0
    5.4477   -5.3026   19.3156 C   0  0  0  0  0  0  0  0  0  0  0  0
    5.4150   -6.2698   18.3019 C   0  0  0  0  0  0  0  0  0  0  0  0
    5.2477   -7.6225   18.6107 C   0  0  0  0  0  0  0  0  0  0  0  0
    5.1135   -8.0216   19.9374 C   0  0  0  0  0  0  0  0  0  0  0  0
    5.1474   -7.0681   20.9519 C   0  0  0  0  0  0  0  0  0  0  0  0
    5.3147   -5.7141   20.6427 C   0  0  0  0  0  0  0  0  0  0  0  0
    6.6446    2.2031   17.0966 C   0  0  0  0  0  0  0  0  0  0  0  0
    5.7730    3.0625   17.0816 O   0  0  0  0  0  0  0  0  0  0  0  0
    7.8680    2.4363   16.5353 N   0  0  0  0  0  0  0  0  0  0  0  0
  1  2  1  0
  2  3  2  0
  3  4  1  0
  4  5  2  0
  5  6  1  0
  6  1  2  0
  7  8  2  0
  7  9  1  0
  9 10  1  0
 10 11  2  0
 11 12  1  0
 12 13  2  0
 13 14  1  0
 14 15  2  0
 15 10  1  0
  1  7  1  0
 16 17  2  0
 16 18  1  0
  4 16  1  0
M  END
>  <canonical_smiles>  (77) 
NC(=O)c1ccc(C(=O)Nc2ccccc2)cc1

>  <geometry_score>  (77) 
14.284726999481414

>  <evidence>  (77) 
generated graph and model pose, not experimentally validated

$$$$
Gba0fb6262f87
     RDKit          3D

 16 17  0  0  0  0  0  0  0  0999 V2000
    5.6122   -1.6529   19.2497 C   0  0  0  0  0  0  0  0  0  0  0  0
    6.0632   -1.2210   18.0153 C   0  0  0  0  0  0  0  0  0  0  0  0
    5.9939    0.1923   18.0313 C   0  0  0  0  0  0  0  0  0  0  0  0
    5.5072    0.5440   19.2676 C   0  0  0  0  0  0  0  0  0  0  0  0
    5.2712   -0.5658   20.0174 O   0  0  0  0  0  0  0  0  0  0  0  0
    5.4642   -2.9922   19.7954 C   0  0  0  0  0  0  0  0  0  0  0  0
    5.7574   -3.9874   19.1425 O   0  0  0  0  0  0  0  0  0  0  0  0
    4.9717   -2.9876   21.0877 N   0  0  0  0  0  0  0  0  0  0  0  0
    4.7019   -4.0864   21.9247 C   0  0  0  0  0  0  0  0  0  0  0  0
    4.9016   -5.4180   21.5569 C   0  0  0  0  0  0  0  0  0  0  0  0
    4.6068   -6.4519   22.4521 C   0  0  0  0  0  0  0  0  0  0  0  0
    4.1105   -6.1631   23.7209 C   0  0  0  0  0  0  0  0  0  0  0  0
    3.9078   -4.8386   24.0976 C   0  0  0  0  0  0  0  0  0  0  0  0
    4.2022   -3.8059   23.2035 C   0  0  0  0  0  0  0  0  0  0  0  0
    6.3477    1.1041   16.9957 C   0  0  0  0  0  0  0  0  0  0  0  0
    6.6339    1.8524   16.1567 N   0  0  0  0  0  0  0  0  0  0  0  0
  1  2  2  0
  2  3  1  0
  3  4  2  0
  4  5  1  0
  5  1  1  0
  6  7  2  0
  6  8  1  0
  8  9  1  0
  9 10  2  0
 10 11  1  0
 11 12  2  0
 12 13  1  0
 13 14  2  0
 14  9  1  0
  1  6  1  0
 15 16  3  0
  3 15  1  0
M  END
>  <canonical_smiles>  (78) 
N#Cc1coc(C(=O)Nc2ccccc2)c1

>  <geometry_score>  (78) 
17.986637752431122

>  <evidence>  (78) 
generated graph and model pose, not experimentally validated

$$$$
G8dd21474cb48
     RDKit          3D

 11 11  0  0  0  0  0  0  0  0999 V2000
    7.6386    1.5435   19.7968 C   0  0  0  0  0  0  0  0  0  0  0  0
    8.1139    0.3275   19.3057 C   0  0  0  0  0  0  0  0  0  0  0  0
    7.3589   -0.3867   18.3780 C   0  0  0  0  0  0  0  0  0  0  0  0
    6.1332    0.0859   17.9253 C   0  0  0  0  0  0  0  0  0  0  0  0
    5.6499    1.2975   18.4086 C   0  0  0  0  0  0  0  0  0  0  0  0
    6.4004    2.0220   19.3402 C   0  0  0  0  0  0  0  0  0  0  0  0
    8.3271    2.3394   20.7362 N   0  0  0  0  0  0  0  0  0  0  0  0
    9.5521    2.0765   21.3237 C   0  0  0  0  0  0  0  0  0  0  0  0
   10.2673    1.1001   21.1355 O   0  0  0  0  0  0  0  0  0  0  0  0
    9.9617    3.1674   22.2810 C   0  0  0  0  0  0  0  0  0  0  0  0
    7.8216   -1.5540   17.9106 F   0  0  0  0  0  0  0  0  0  0  0  0
  1  2  1  0
  2  3  2  0
  3  4  1  0
  4  5  2  0
  5  6  1  0
  6  1  2  0
  7  8  1  0
  8  9  2  0
  8 10  1  0
  1  7  1  0
  3 11  1  0
M  END
>  <canonical_smiles>  (79) 
CC(=O)Nc1cccc(F)c1

>  <geometry_score>  (79) 
18.06107528054582

>  <evidence>  (79) 
generated graph and model pose, not experimentally validated

$$$$
G1e04839df3cd
     RDKit          3D

 16 17  0  0  0  0  0  0  0  0999 V2000
    6.6989    0.4892   18.8550 C   0  0  0  0  0  0  0  0  0  0  0  0
    7.2476    0.2611   20.1024 C   0  0  0  0  0  0  0  0  0  0  0  0
    8.6478   -0.0339   20.0491 C   0  0  0  0  0  0  0  0  0  0  0  0
    9.1061   -0.0112   18.7456 C   0  0  0  0  0  0  0  0  0  0  0  0
    7.8662    0.3365   17.6179 S   0  0  0  0  0  0  0  0  0  0  0  0
    5.0486    0.8695   18.3305 S   0  0  0  0  0  0  0  0  0  0  0  0
    4.4790   -0.3859   17.8973 O   0  0  0  0  0  0  0  0  0  0  0  0
    5.1362    2.0239   17.4650 O   0  0  0  0  0  0  0  0  0  0  0  0
    4.1765    1.3314   19.7068 N   0  0  0  0  0  0  0  0  0  0  0  0
    4.4178    2.6910   20.2003 C   0  0  0  0  0  0  0  0  0  0  0  0
    9.5321   -0.3120   21.1761 C   0  0  0  0  0  0  0  0  0  0  0  0
    9.4596    0.4730   22.3346 C   0  0  0  0  0  0  0  0  0  0  0  0
   10.2977    0.2109   23.4212 C   0  0  0  0  0  0  0  0  0  0  0  0
   11.2115   -0.8395   23.3607 C   0  0  0  0  0  0  0  0  0  0  0  0
   11.2885   -1.6295   22.2153 C   0  0  0  0  0  0  0  0  0  0  0  0
   10.4522   -1.3682   21.1271 C   0  0  0  0  0  0  0  0  0  0  0  0
  1  2  2  0
  2  3  1  0
  3  4  2  0
  4  5  1  0
  5  1  1  0
  6  7  2  0
  6  8  2  0
  6  9  1  0
  9 10  1  0
  1  6  1  0
 11 12  2  0
 12 13  1  0
 13 14  2  0
 14 15  1  0
 15 16  2  0
 16 11  1  0
  3 11  1  0
M  END
>  <canonical_smiles>  (80) 
CNS(=O)(=O)c1cc(-c2ccccc2)cs1

>  <geometry_score>  (80) 
13.037936943425228

>  <evidence>  (80) 
generated graph and model pose, not experimentally validated

$$$$
Gd336af9f93c6
     RDKit          3D

 19 20  0  0  0  0  0  0  0  0999 V2000
    5.9696   -4.1626   20.6192 C   0  0  0  0  0  0  0  0  0  0  0  0
    5.7070   -5.0175   21.6985 C   0  0  0  0  0  0  0  0  0  0  0  0
    6.0837   -6.3630   21.6318 C   0  0  0  0  0  0  0  0  0  0  0  0
    6.7398   -6.8420   20.4897 C   0  0  0  0  0  0  0  0  0  0  0  0
    6.9862   -5.9950   19.4076 C   0  0  0  0  0  0  0  0  0  0  0  0
    6.5939   -4.6572   19.4662 C   0  0  0  0  0  0  0  0  0  0  0  0
    5.5363   -2.7418   20.7285 C   0  0  0  0  0  0  0  0  0  0  0  0
    4.5030   -2.5072   21.3434 O   0  0  0  0  0  0  0  0  0  0  0  0
    6.3892   -1.8254   20.1430 N   0  0  0  0  0  0  0  0  0  0  0  0
    6.2076   -0.4296   20.0436 C   0  0  0  0  0  0  0  0  0  0  0  0
    7.2434    0.3101   19.4569 C   0  0  0  0  0  0  0  0  0  0  0  0
    7.1398    1.6966   19.3161 C   0  0  0  0  0  0  0  0  0  0  0  0
    5.9976    2.3572   19.7592 C   0  0  0  0  0  0  0  0  0  0  0  0
    4.9617    1.6305   20.3408 C   0  0  0  0  0  0  0  0  0  0  0  0
    5.0655    0.2426   20.4818 C   0  0  0  0  0  0  0  0  0  0  0  0
    5.8343   -7.3106   22.7525 C   0  0  0  0  0  0  0  0  0  0  0  0
    6.5625   -8.2856   22.9017 O   0  0  0  0  0  0  0  0  0  0  0  0
    4.7488   -7.0423   23.5587 N   0  0  0  0  0  0  0  0  0  0  0  0
    4.4229   -7.8998   24.6697 C   0  0  0  0  0  0  0  0  0  0  0  0
  1  2  1  0
  2  3  2  0
  3  4  1  0
  4  5  2  0
  5  6  1  0
  6  1  2  0
  7  8  2  0
  7  9  1  0
  9 10  1  0
 10 11  2  0
 11 12  1  0
 12 13  2  0
 13 14  1  0
 14 15  2  0
 15 10  1  0
  1  7  1  0
 16 17  2  0
 16 18  1  0
 18 19  1  0
  3 16  1  0
M  END
>  <canonical_smiles>  (81) 
CNC(=O)c1cccc(C(=O)Nc2ccccc2)c1

>  <geometry_score>  (81) 
13.309984647519371

>  <evidence>  (81) 
generated graph and model pose, not experimentally validated

$$$$
G7e22bd2e4dd7
     RDKit          3D

 13 13  0  0  0  0  0  0  0  0999 V2000
    7.3112   -0.0822   21.2966 C   0  0  0  0  0  0  0  0  0  0  0  0
    7.4215    0.2055   19.9338 C   0  0  0  0  0  0  0  0  0  0  0  0
    6.8121   -0.6351   18.9962 C   0  0  0  0  0  0  0  0  0  0  0  0
    6.0888   -1.7527   19.4200 C   0  0  0  0  0  0  0  0  0  0  0  0
    5.9756   -2.0214   20.7887 C   0  0  0  0  0  0  0  0  0  0  0  0
    6.5786   -1.1877   21.7321 C   0  0  0  0  0  0  0  0  0  0  0  0
    8.0709    0.9860   22.4951 S   0  0  0  0  0  0  0  0  0  0  0  0
    8.4891    2.1959   21.8230 O   0  0  0  0  0  0  0  0  0  0  0  0
    7.2201    1.0148   23.6639 O   0  0  0  0  0  0  0  0  0  0  0  0
    9.4421    0.1275   22.9252 N   0  0  0  0  0  0  0  0  0  0  0  0
   10.4415   -0.2109   21.9259 C   0  0  0  0  0  0  0  0  0  0  0  0
    5.4504   -2.6509   18.6101 O   0  0  0  0  0  0  0  0  0  0  0  0
    5.4870   -2.3972   17.2112 C   0  0  0  0  0  0  0  0  0  0  0  0
  1  2  1  0
  2  3  2  0
  3  4  1  0
  4  5  2  0
  5  6  1  0
  6  1  2  0
  7  8  2  0
  7  9  2  0
  7 10  1  0
 10 11  1  0
  1  7  1  0
 12 13  1  0
  4 12  1  0
M  END
>  <canonical_smiles>  (82) 
CNS(=O)(=O)c1ccc(OC)cc1

>  <geometry_score>  (82) 
12.201973332363135

>  <evidence>  (82) 
generated graph and model pose, not experimentally validated

$$$$
G43203608ce20
     RDKit          3D

 14 14  0  0  0  0  0  0  0  0999 V2000
    8.7986   -0.0491   20.6996 C   0  0  0  0  0  0  0  0  0  0  0  0
    8.8892   -0.2486   19.3163 C   0  0  0  0  0  0  0  0  0  0  0  0
    7.7836   -0.6999   18.5861 C   0  0  0  0  0  0  0  0  0  0  0  0
    6.5734   -0.9550   19.2305 C   0  0  0  0  0  0  0  0  0  0  0  0
    6.4804   -0.7546   20.6092 C   0  0  0  0  0  0  0  0  0  0  0  0
    7.5819   -0.3058   21.3409 C   0  0  0  0  0  0  0  0  0  0  0  0
    9.9852    0.4624   21.4840 C   0  0  0  0  0  0  0  0  0  0  0  0
   10.1502    1.9820   21.3784 C   0  0  0  0  0  0  0  0  0  0  0  0
    9.0471    2.7096   21.9781 N   0  0  0  0  0  0  0  0  0  0  0  0
    8.9942    2.9723   23.3262 C   0  0  0  0  0  0  0  0  0  0  0  0
    9.8706    2.6484   24.1198 O   0  0  0  0  0  0  0  0  0  0  0  0
    7.7596    3.7221   23.7448 C   0  0  0  0  0  0  0  0  0  0  0  0
    5.4218   -1.3941   18.6376 O   0  0  0  0  0  0  0  0  0  0  0  0
    5.4780   -1.6570   17.2414 C   0  0  0  0  0  0  0  0  0  0  0  0
  1  2  1  0
  2  3  2  0
  3  4  1  0
  4  5  2  0
  5  6  1  0
  6  1  2  0
  7  8  1  0
  8  9  1  0
  9 10  1  0
 10 11  2  0
 10 12  1  0
  1  7  1  0
 13 14  1  0
  4 13  1  0
M  END
>  <canonical_smiles>  (83) 
COc1ccc(CCNC(C)=O)cc1

>  <geometry_score>  (83) 
13.677095771572985

>  <evidence>  (83) 
generated graph and model pose, not experimentally validated

$$$$
G7bf9f5509da1
     RDKit          3D

 17 18  0  0  0  0  0  0  0  0999 V2000
    6.1929   -2.4914   20.2840 C   0  0  0  0  0  0  0  0  0  0  0  0
    6.6951   -3.7093   19.8224 C   0  0  0  0  0  0  0  0  0  0  0  0
    7.3810   -4.5489   20.7043 C   0  0  0  0  0  0  0  0  0  0  0  0
    7.5667   -4.1916   22.0521 C   0  0  0  0  0  0  0  0  0  0  0  0
    7.0372   -2.9656   22.4936 C   0  0  0  0  0  0  0  0  0  0  0  0
    6.3487   -2.1191   21.6200 C   0  0  0  0  0  0  0  0  0  0  0  0
    5.3092   -1.4335   19.1641 S   0  0  0  0  0  0  0  0  0  0  0  0
    4.6240   -2.2752   18.2085 O   0  0  0  0  0  0  0  0  0  0  0  0
    4.6118   -0.4323   19.9397 O   0  0  0  0  0  0  0  0  0  0  0  0
    6.5479   -0.6781   18.3291 N   0  0  0  0  0  0  0  0  0  0  0  0
    7.5236    0.1340   19.0365 C   0  0  0  0  0  0  0  0  0  0  0  0
    8.2889   -5.0805   22.9776 C   0  0  0  0  0  0  0  0  0  0  0  0
    7.9098   -6.4243   23.1346 C   0  0  0  0  0  0  0  0  0  0  0  0
    8.5945   -7.2686   24.0130 C   0  0  0  0  0  0  0  0  0  0  0  0
    9.6718   -6.7830   24.7495 C   0  0  0  0  0  0  0  0  0  0  0  0
   10.0641   -5.4544   24.6092 C   0  0  0  0  0  0  0  0  0  0  0  0
    9.3778   -4.6109   23.7312 C   0  0  0  0  0  0  0  0  0  0  0  0
  1  2  1  0
  2  3  2  0
  3  4  1  0
  4  5  2  0
  5  6  1  0
  6  1  2  0
  7  8  2  0
  7  9  2  0
  7 10  1  0
 10 11  1  0
  1  7  1  0
 12 13  2  0
 13 14  1  0
 14 15  2  0
 15 16  1  0
 16 17  2  0
 17 12  1  0
  4 12  1  0
M  END
>  <canonical_smiles>  (84) 
CNS(=O)(=O)c1ccc(-c2ccccc2)cc1

>  <geometry_score>  (84) 
13.271244080812188

>  <evidence>  (84) 
generated graph and model pose, not experimentally validated

$$$$
Gedbaac6843d5
     RDKit          3D

 12 12  0  0  0  0  0  0  0  0999 V2000
    5.9833   -1.4441   17.9752 C   0  0  0  0  0  0  0  0  0  0  0  0
    5.8507   -2.7579   18.4540 C   0  0  0  0  0  0  0  0  0  0  0  0
    5.3961   -3.0203   19.7546 C   0  0  0  0  0  0  0  0  0  0  0  0
    5.0815   -1.9477   20.5876 C   0  0  0  0  0  0  0  0  0  0  0  0
    5.2197   -0.6348   20.1304 C   0  0  0  0  0  0  0  0  0  0  0  0
    5.6709   -0.3838   18.8351 C   0  0  0  0  0  0  0  0  0  0  0  0
    6.5025   -1.1486   16.5921 C   0  0  0  0  0  0  0  0  0  0  0  0
    6.3509   -2.2667   15.7260 O   0  0  0  0  0  0  0  0  0  0  0  0
    5.2865   -4.3737   20.1346 N   0  0  0  0  0  0  0  0  0  0  0  0
    4.8746   -4.8778   21.3547 C   0  0  0  0  0  0  0  0  0  0  0  0
    4.5340   -4.2411   22.3447 O   0  0  0  0  0  0  0  0  0  0  0  0
    4.8850   -6.3859   21.3691 C   0  0  0  0  0  0  0  0  0  0  0  0
  1  2  2  0
  2  3  1  0
  3  4  2  0
  4  5  1  0
  5  6  2  0
  6  1  1  0
  7  8  1  0
  1  7  1  0
  9 10  1  0
 10 11  2  0
 10 12  1  0
  3  9  1  0
M  END
>  <canonical_smiles>  (85) 
CC(=O)Nc1cccc(CO)c1

>  <geometry_score>  (85) 
17.445117406915926

>  <evidence>  (85) 
generated graph and model pose, not experimentally validated

$$$$
G213c53711e2a
     RDKit          3D

 16 17  0  0  0  0  0  0  0  0999 V2000
    6.4239   -3.5681   21.5894 C   0  0  0  0  0  0  0  0  0  0  0  0
    6.2820   -4.9161   21.2612 C   0  0  0  0  0  0  0  0  0  0  0  0
    6.5299   -5.9100   22.2155 C   0  0  0  0  0  0  0  0  0  0  0  0
    6.9321   -5.5720   23.5112 C   0  0  0  0  0  0  0  0  0  0  0  0
    7.0575   -4.2214   23.8465 C   0  0  0  0  0  0  0  0  0  0  0  0
    6.8095   -3.2293   22.8922 C   0  0  0  0  0  0  0  0  0  0  0  0
    6.1880   -2.5067   20.6898 N   0  0  0  0  0  0  0  0  0  0  0  0
    5.8574   -2.6013   19.3505 C   0  0  0  0  0  0  0  0  0  0  0  0
    5.7923   -3.6206   18.6747 O   0  0  0  0  0  0  0  0  0  0  0  0
    5.5982   -1.3008   18.6759 C   0  0  0  0  0  0  0  0  0  0  0  0
    4.9447   -0.2529   19.3256 C   0  0  0  0  0  0  0  0  0  0  0  0
    4.7412    0.9171   18.6160 C   0  0  0  0  0  0  0  0  0  0  0  0
    5.1369    1.0976   17.3381 N   0  0  0  0  0  0  0  0  0  0  0  0
    5.7455    0.0574   16.7281 C   0  0  0  0  0  0  0  0  0  0  0  0
    5.9933   -1.1530   17.3464 C   0  0  0  0  0  0  0  0  0  0  0  0
    7.1645   -6.6393   24.5386 C   0  0  0  0  0  0  0  0  0  0  0  0
  1  2  1  0
  2  3  2  0
  3  4  1  0
  4  5  2  0
  5  6  1  0
  6  1  2  0
  7  8  1  0
  8  9  2  0
  8 10  1  0
 10 11  1  0
 11 12  2  0
 12 13  1  0
 13 14  2  0
 14 15  1  0
 15 10  2  0
  1  7  1  0
  4 16  1  0
M  END
>  <canonical_smiles>  (86) 
Cc1ccc(NC(=O)c2ccncc2)cc1

>  <geometry_score>  (86) 
16.28029866608022

>  <evidence>  (86) 
generated graph and model pose, not experimentally validated

$$$$
Gffec535c018d
     RDKit          3D

 17 18  0  0  0  0  0  0  0  0999 V2000
    9.5449    0.3828   21.9671 C   0  0  0  0  0  0  0  0  0  0  0  0
   10.8241    0.1153   21.4633 C   0  0  0  0  0  0  0  0  0  0  0  0
   11.9448    0.1989   22.2952 C   0  0  0  0  0  0  0  0  0  0  0  0
   11.7808    0.5429   23.6383 C   0  0  0  0  0  0  0  0  0  0  0  0
   10.5039    0.7907   24.1500 C   0  0  0  0  0  0  0  0  0  0  0  0
    9.3875    0.7064   23.3188 C   0  0  0  0  0  0  0  0  0  0  0  0
    8.3296    0.3049   21.1078 C   0  0  0  0  0  0  0  0  0  0  0  0
    7.2846   -0.0783   21.6197 O   0  0  0  0  0  0  0  0  0  0  0  0
    8.5119    0.7229   19.8019 N   0  0  0  0  0  0  0  0  0  0  0  0
    7.5629    0.7125   18.7579 C   0  0  0  0  0  0  0  0  0  0  0  0
    7.9648    1.2400   17.5231 C   0  0  0  0  0  0  0  0  0  0  0  0
    7.0866    1.2631   16.4362 C   0  0  0  0  0  0  0  0  0  0  0  0
    5.7974    0.7566   16.5730 C   0  0  0  0  0  0  0  0  0  0  0  0
    5.3896    0.2277   17.7951 C   0  0  0  0  0  0  0  0  0  0  0  0
    6.2688    0.2048   18.8830 C   0  0  0  0  0  0  0  0  0  0  0  0
   13.1325   -0.0783   21.6755 O   0  0  0  0  0  0  0  0  0  0  0  0
   14.3008   -0.0626   22.4871 C   0  0  0  0  0  0  0  0  0  0  0  0
  1  2  1  0
  2  3  2  0
  3  4  1  0
  4  5  2  0
  5  6  1  0
  6  1  2  0
  7  8  2  0
  7  9  1  0
  9 10  1  0
 10 11  2  0
 11 12  1  0
 12 13  2  0
 13 14  1  0
 14 15  2  0
 15 10  1  0
  1  7  1  0
 16 17  1  0
  3 16  1  0
M  END
>  <canonical_smiles>  (87) 
COc1cccc(C(=O)Nc2ccccc2)c1

>  <geometry_score>  (87) 
14.669532866869428

>  <evidence>  (87) 
generated graph and model pose, not experimentally validated

$$$$
G5a4efc2e33aa
     RDKit          3D

 18 19  0  0  0  0  0  0  0  0999 V2000
   10.0538   -0.4159   20.5641 C   0  0  0  0  0  0  0  0  0  0  0  0
   10.6980   -1.5327   21.0911 C   0  0  0  0  0  0  0  0  0  0  0  0
   11.5547   -1.3508   22.1619 C   0  0  0  0  0  0  0  0  0  0  0  0
   11.8005   -0.1539   22.7365 N   0  0  0  0  0  0  0  0  0  0  0  0
   11.1665    0.9383   22.2358 C   0  0  0  0  0  0  0  0  0  0  0  0
   10.2952    0.8341   21.1494 C   0  0  0  0  0  0  0  0  0  0  0  0
    9.0967   -0.5431   19.4074 C   0  0  0  0  0  0  0  0  0  0  0  0
    7.6472   -0.6702   19.8829 C   0  0  0  0  0  0  0  0  0  0  0  0
    6.7152   -0.7766   18.7767 N   0  0  0  0  0  0  0  0  0  0  0  0
    6.3044    0.3332   18.0741 C   0  0  0  0  0  0  0  0  0  0  0  0
    6.7109    1.4680   18.2982 O   0  0  0  0  0  0  0  0  0  0  0  0
    5.3329    0.0267   16.9674 C   0  0  0  0  0  0  0  0  0  0  0  0
   11.4681    2.2219   22.9079 C   0  0  0  0  0  0  0  0  0  0  0  0
   10.5377    3.2769   22.9674 C   0  0  0  0  0  0  0  0  0  0  0  0
   10.8441    4.4853   23.6034 C   0  0  0  0  0  0  0  0  0  0  0  0
   12.0884    4.6654   24.1996 C   0  0  0  0  0  0  0  0  0  0  0  0
   13.0244    3.6371   24.1649 C   0  0  0  0  0  0  0  0  0  0  0  0
   12.7146    2.4311   23.5286 C   0  0  0  0  0  0  0  0  0  0  0  0
  1  2  1  0
  2  3  2  0
  3  4  1  0
  4  5  2  0
  5  6  1  0
  6  1  2  0
  7  8  1  0
  8  9  1  0
  9 10  1  0
 10 11  2  0
 10 12  1  0
  1  7  1  0
 13 14  2  0
 14 15  1  0
 15 16  2  0
 16 17  1  0
 17 18  2  0
 18 13  1  0
  5 13  1  0
M  END
>  <canonical_smiles>  (88) 
CC(=O)NCCc1ccnc(-c2ccccc2)c1

>  <geometry_score>  (88) 
14.26972972841371

>  <evidence>  (88) 
generated graph and model pose, not experimentally validated

$$$$
G2bcfea78fddf
     RDKit          3D

 16 17  0  0  0  0  0  0  0  0999 V2000
    5.6970   -2.1486   22.8936 C   0  0  0  0  0  0  0  0  0  0  0  0
    5.5113   -1.2175   21.8899 C   0  0  0  0  0  0  0  0  0  0  0  0
    6.0900   -1.6184   20.6427 C   0  0  0  0  0  0  0  0  0  0  0  0
    6.6848   -2.8610   20.7550 C   0  0  0  0  0  0  0  0  0  0  0  0
    6.5612   -3.5108   22.3341 S   0  0  0  0  0  0  0  0  0  0  0  0
    5.2085   -2.1708   24.5989 S   0  0  0  0  0  0  0  0  0  0  0  0
    4.2490   -3.2431   24.7247 O   0  0  0  0  0  0  0  0  0  0  0  0
    4.8719   -0.7970   24.9031 O   0  0  0  0  0  0  0  0  0  0  0  0
    6.5785   -2.5364   25.5271 N   0  0  0  0  0  0  0  0  0  0  0  0
    6.2816   -2.8738   26.9275 C   0  0  0  0  0  0  0  0  0  0  0  0
    6.0650   -0.8811   19.3834 C   0  0  0  0  0  0  0  0  0  0  0  0
    4.8993   -0.2292   18.9766 C   0  0  0  0  0  0  0  0  0  0  0  0
    4.9156    0.4657   17.7784 C   0  0  0  0  0  0  0  0  0  0  0  0
    5.9978    0.5559   16.9775 N   0  0  0  0  0  0  0  0  0  0  0  0
    7.1145   -0.0775   17.3924 C   0  0  0  0  0  0  0  0  0  0  0  0
    7.1984   -0.7997   18.5715 C   0  0  0  0  0  0  0  0  0  0  0  0
  1  2  2  0
  2  3  1  0
  3  4  2  0
  4  5  1  0
  5  1  1  0
  6  7  2  0
  6  8  2  0
  6  9  1  0
  9 10  1  0
  1  6  1  0
 11 12  1  0
 12 13  2  0
 13 14  1  0
 14 15  2  0
 15 16  1  0
 16 11  2  0
  3 11  1  0
M  END
>  <canonical_smiles>  (89) 
CNS(=O)(=O)c1cc(-c2ccncc2)cs1

>  <geometry_score>  (89) 
13.144321168508158

>  <evidence>  (89) 
generated graph and model pose, not experimentally validated

$$$$
G7748414a1e4c
     RDKit          3D

 17 18  0  0  0  0  0  0  0  0999 V2000
    6.9847    0.9835   19.4246 C   0  0  0  0  0  0  0  0  0  0  0  0
    6.2365    1.6382   20.4122 C   0  0  0  0  0  0  0  0  0  0  0  0
    5.0476    2.2915   20.0695 C   0  0  0  0  0  0  0  0  0  0  0  0
    4.5963    2.2869   18.7439 C   0  0  0  0  0  0  0  0  0  0  0  0
    5.3348    1.6188   17.7616 C   0  0  0  0  0  0  0  0  0  0  0  0
    6.5222    0.9644   18.1022 C   0  0  0  0  0  0  0  0  0  0  0  0
    8.2516    0.2660   19.7446 C   0  0  0  0  0  0  0  0  0  0  0  0
    8.5003   -0.7616   19.1268 O   0  0  0  0  0  0  0  0  0  0  0  0
    9.0404    0.8776   20.7016 N   0  0  0  0  0  0  0  0  0  0  0  0
   10.2545    0.4014   21.2408 C   0  0  0  0  0  0  0  0  0  0  0  0
   10.9132    1.2276   22.1617 C   0  0  0  0  0  0  0  0  0  0  0  0
   12.1181    0.8274   22.7460 C   0  0  0  0  0  0  0  0  0  0  0  0
   12.6754   -0.4046   22.4163 C   0  0  0  0  0  0  0  0  0  0  0  0
   12.0270   -1.2338   21.5045 C   0  0  0  0  0  0  0  0  0  0  0  0
   10.8210   -0.8332   20.9197 C   0  0  0  0  0  0  0  0  0  0  0  0
    3.3770    2.9576   18.3972 C   0  0  0  0  0  0  0  0  0  0  0  0
    2.3919    3.5056   18.1219 N   0  0  0  0  0  0  0  0  0  0  0  0
  1  2  1  0
  2  3  2  0
  3  4  1  0
  4  5  2  0
  5  6  1  0
  6  1  2  0
  7  8  2  0
  7  9  1  0
  9 10  1  0
 10 11  2  0
 11 12  1  0
 12 13  2  0
 13 14  1  0
 14 15  2  0
 15 10  1  0
  1  7  1  0
 16 17  3  0
  4 16  1  0
M  END
>  <canonical_smiles>  (90) 
N#Cc1ccc(C(=O)Nc2ccccc2)cc1

>  <geometry_score>  (90) 
15.134657923160182

>  <evidence>  (90) 
generated graph and model pose, not experimentally validated

$$$$
G97dd1262abc6
     RDKit          3D

 17 18  0  0  0  0  0  0  0  0999 V2000
    6.8008   -0.0334   18.9225 C   0  0  0  0  0  0  0  0  0  0  0  0
    7.9384   -0.5445   18.2963 C   0  0  0  0  0  0  0  0  0  0  0  0
    9.1119   -0.7169   19.0360 C   0  0  0  0  0  0  0  0  0  0  0  0
    9.1631   -0.3941   20.4041 C   0  0  0  0  0  0  0  0  0  0  0  0
    7.9976    0.1051   21.0133 C   0  0  0  0  0  0  0  0  0  0  0  0
    6.8196    0.2821   20.2821 C   0  0  0  0  0  0  0  0  0  0  0  0
    5.2963    0.1741   18.0011 S   0  0  0  0  0  0  0  0  0  0  0  0
    5.4334   -0.5285   16.7450 O   0  0  0  0  0  0  0  0  0  0  0  0
    4.1912   -0.0737   18.9001 O   0  0  0  0  0  0  0  0  0  0  0  0
    5.2922    1.8167   17.6839 N   0  0  0  0  0  0  0  0  0  0  0  0
    6.3648    2.4234   16.9146 C   0  0  0  0  0  0  0  0  0  0  0  0
   10.4000   -0.5817   21.1792 C   0  0  0  0  0  0  0  0  0  0  0  0
   10.4078   -1.3319   22.3611 C   0  0  0  0  0  0  0  0  0  0  0  0
   11.5976   -1.4812   23.0569 C   0  0  0  0  0  0  0  0  0  0  0  0
   12.7688   -0.9391   22.6655 N   0  0  0  0  0  0  0  0  0  0  0  0
   12.7489   -0.2191   21.5256 C   0  0  0  0  0  0  0  0  0  0  0  0
   11.6105   -0.0167   20.7604 C   0  0  0  0  0  0  0  0  0  0  0  0
  1  2  1  0
  2  3  2  0
  3  4  1  0
  4  5  2  0
  5  6  1  0
  6  1  2  0
  7  8  2  0
  7  9  2  0
  7 10  1  0
 10 11  1  0
  1  7  1  0
 12 13  1  0
 13 14  2  0
 14 15  1  0
 15 16  2  0
 16 17  1  0
 17 12  2  0
  4 12  1  0
M  END
>  <canonical_smiles>  (91) 
CNS(=O)(=O)c1ccc(-c2ccncc2)cc1

>  <geometry_score>  (91) 
15.425911685433073

>  <evidence>  (91) 
generated graph and model pose, not experimentally validated

$$$$
Gd32c161c4db9
     RDKit          3D

 17 18  0  0  0  0  0  0  0  0999 V2000
    6.6557   -0.6746   19.4716 C   0  0  0  0  0  0  0  0  0  0  0  0
    5.9481   -0.0465   20.5032 C   0  0  0  0  0  0  0  0  0  0  0  0
    6.5536    0.9622   21.2695 C   0  0  0  0  0  0  0  0  0  0  0  0
    7.8777    1.3229   20.9596 C   0  0  0  0  0  0  0  0  0  0  0  0
    8.5769    0.7026   19.9190 C   0  0  0  0  0  0  0  0  0  0  0  0
    7.9652   -0.2976   19.1686 C   0  0  0  0  0  0  0  0  0  0  0  0
    5.8660   -1.9309   18.5015 S   0  0  0  0  0  0  0  0  0  0  0  0
    6.3949   -1.8479   17.1578 O   0  0  0  0  0  0  0  0  0  0  0  0
    4.4439   -1.9056   18.7615 O   0  0  0  0  0  0  0  0  0  0  0  0
    6.4981   -3.3362   19.1666 N   0  0  0  0  0  0  0  0  0  0  0  0
    5.8735   -3.8875   20.3612 C   0  0  0  0  0  0  0  0  0  0  0  0
    5.8226    1.6248   22.3632 C   0  0  0  0  0  0  0  0  0  0  0  0
    4.5496    2.1810   22.1516 C   0  0  0  0  0  0  0  0  0  0  0  0
    3.8547    2.8084   23.1893 C   0  0  0  0  0  0  0  0  0  0  0  0
    4.4211    2.8900   24.4586 C   0  0  0  0  0  0  0  0  0  0  0  0
    5.6812    2.3453   24.6908 C   0  0  0  0  0  0  0  0  0  0  0  0
    6.3752    1.7188   23.6518 C   0  0  0  0  0  0  0  0  0  0  0  0
  1  2  1  0
  2  3  2  0
  3  4  1  0
  4  5  2  0
  5  6  1  0
  6  1  2  0
  7  8  2  0
  7  9  2  0
  7 10  1  0
 10 11  1  0
  1  7  1  0
 12 13  2  0
 13 14  1  0
 14 15  2  0
 15 16  1  0
 16 17  2  0
 17 12  1  0
  3 12  1  0
M  END
>  <canonical_smiles>  (92) 
CNS(=O)(=O)c1cccc(-c2ccccc2)c1

>  <geometry_score>  (92) 
13.820774547888327

>  <evidence>  (92) 
generated graph and model pose, not experimentally validated

$$$$
G5fa4f9354700
     RDKit          3D

 12 12  0  0  0  0  0  0  0  0999 V2000
    7.1416    0.2927   19.0507 C   0  0  0  0  0  0  0  0  0  0  0  0
    8.1461   -0.6812   19.1022 C   0  0  0  0  0  0  0  0  0  0  0  0
    9.2754   -0.4582   19.8910 C   0  0  0  0  0  0  0  0  0  0  0  0
    9.3916    0.7309   20.6059 C   0  0  0  0  0  0  0  0  0  0  0  0
    8.4017    1.7081   20.5454 C   0  0  0  0  0  0  0  0  0  0  0  0
    7.2689    1.4938   19.7595 C   0  0  0  0  0  0  0  0  0  0  0  0
    5.7054    0.0311   18.0351 S   0  0  0  0  0  0  0  0  0  0  0  0
    5.9724   -1.0832   17.1538 O   0  0  0  0  0  0  0  0  0  0  0  0
    5.2810    1.3194   17.5346 O   0  0  0  0  0  0  0  0  0  0  0  0
    4.5585   -0.4471   19.1532 N   0  0  0  0  0  0  0  0  0  0  0  0
    4.7467   -1.6512   19.9431 C   0  0  0  0  0  0  0  0  0  0  0  0
   10.4769    0.9402   21.3619 F   0  0  0  0  0  0  0  0  0  0  0  0
  1  2  1  0
  2  3  2  0
  3  4  1  0
  4  5  2  0
  5  6  1  0
  6  1  2  0
  7  8  2  0
  7  9  2  0
  7 10  1  0
 10 11  1  0
  1  7  1  0
  4 12  1  0
M  END
>  <canonical_smiles>  (93) 
CNS(=O)(=O)c1ccc(F)cc1

>  <geometry_score>  (93) 
17.36823165810269

>  <evidence>  (93) 
generated graph and model pose, not experimentally validated

$$$$
G4865e0536132
     RDKit          3D

 20 22  0  0  0  0  0  0  0  0999 V2000
    9.6593   -0.6212   21.7291 C   0  0  0  0  0  0  0  0  0  0  0  0
    9.7979   -1.3407   20.5400 C   0  0  0  0  0  0  0  0  0  0  0  0
    8.9101   -1.1123   19.4841 C   0  0  0  0  0  0  0  0  0  0  0  0
    7.8850   -0.1552   19.5917 C   0  0  0  0  0  0  0  0  0  0  0  0
    7.7805    0.5741   20.7896 C   0  0  0  0  0  0  0  0  0  0  0  0
    8.6643    0.3503   21.8493 C   0  0  0  0  0  0  0  0  0  0  0  0
   10.5976   -0.8235   22.8552 C   0  0  0  0  0  0  0  0  0  0  0  0
   11.2017    0.1573   23.2821 O   0  0  0  0  0  0  0  0  0  0  0  0
   10.7480   -2.0987   23.3827 N   0  0  0  0  0  0  0  0  0  0  0  0
    9.8893   -3.2523   23.0908 C   0  0  0  0  0  0  0  0  0  0  0  0
    9.8222   -4.2017   24.2917 C   0  0  0  0  0  0  0  0  0  0  0  0
   11.1051   -4.7009   24.6932 O   0  0  0  0  0  0  0  0  0  0  0  0
   12.1877   -3.7848   24.4664 C   0  0  0  0  0  0  0  0  0  0  0  0
   11.7585   -2.3163   24.4182 C   0  0  0  0  0  0  0  0  0  0  0  0
    6.9565    0.0862   18.4760 C   0  0  0  0  0  0  0  0  0  0  0  0
    6.7682    1.3721   17.9556 C   0  0  0  0  0  0  0  0  0  0  0  0
    5.8840    1.5502   16.9027 C   0  0  0  0  0  0  0  0  0  0  0  0
    5.1781    0.5493   16.3381 N   0  0  0  0  0  0  0  0  0  0  0  0
    5.3672   -0.6844   16.8486 C   0  0  0  0  0  0  0  0  0  0  0  0
    6.2311   -0.9617   17.8969 C   0  0  0  0  0  0  0  0  0  0  0  0
  1  2  1  0
  2  3  2  0
  3  4  1  0
  4  5  2  0
  5  6  1  0
  6  1  2  0
  7  8  2  0
  7  9  1  0
  9 10  1  0
 10 11  1  0
 11 12  1  0
 12 13  1  0
 13 14  1  0
 14  9  1  0
  1  7  1  0
 15 16  1  0
 16 17  2  0
 17 18  1  0
 18 19  2  0
 19 20  1  0
 20 15  2  0
  4 15  1  0
M  END
>  <canonical_smiles>  (94) 
O=C(c1ccc(-c2ccncc2)cc1)N1CCOCC1

>  <geometry_score>  (94) 
11.494475512131212

>  <evidence>  (94) 
generated graph and model pose, not experimentally validated

$$$$
G7d4d31d42582
     RDKit          3D

 17 18  0  0  0  0  0  0  0  0999 V2000
    7.3775    0.8214   18.5255 C   0  0  0  0  0  0  0  0  0  0  0  0
    6.0922    0.5736   19.0185 C   0  0  0  0  0  0  0  0  0  0  0  0
    4.9878    1.2222   18.4611 C   0  0  0  0  0  0  0  0  0  0  0  0
    5.1811    2.1132   17.4033 C   0  0  0  0  0  0  0  0  0  0  0  0
    6.4646    2.3391   16.8924 C   0  0  0  0  0  0  0  0  0  0  0  0
    7.5643    1.6871   17.4465 C   0  0  0  0  0  0  0  0  0  0  0  0
    8.5495    0.1195   19.0904 C   0  0  0  0  0  0  0  0  0  0  0  0
    9.2487   -0.5290   18.3155 O   0  0  0  0  0  0  0  0  0  0  0  0
    8.8092    0.2246   20.4495 N   0  0  0  0  0  0  0  0  0  0  0  0
    8.1738    1.1579   21.3879 C   0  0  0  0  0  0  0  0  0  0  0  0
    9.2333    1.9193   22.1960 C   0  0  0  0  0  0  0  0  0  0  0  0
   10.1530    1.0215   22.8353 O   0  0  0  0  0  0  0  0  0  0  0  0
   10.8342    0.2179   21.8568 C   0  0  0  0  0  0  0  0  0  0  0  0
    9.8395   -0.6223   21.0529 C   0  0  0  0  0  0  0  0  0  0  0  0
    3.7948    0.9097   19.0493 O   0  0  0  0  0  0  0  0  0  0  0  0
    2.5865    1.3529   18.4330 C   0  0  0  0  0  0  0  0  0  0  0  0
    2.1663    2.7030   18.9872 C   0  0  0  0  0  0  0  0  0  0  0  0
  1  2  1  0
  2  3  2  0
  3  4  1  0
  4  5  2  0
  5  6  1  0
  6  1  2  0
  7  8  2  0
  7  9  1  0
  9 10  1  0
 10 11  1  0
 11 12  1  0
 12 13  1  0
 13 14  1  0
 14  9  1  0
  1  7  1  0
 15 16  1  0
 16 17  1  0
  3 15  1  0
M  END
>  <canonical_smiles>  (95) 
CCOc1cccc(C(=O)N2CCOCC2)c1

>  <geometry_score>  (95) 
15.489860937010409

>  <evidence>  (95) 
generated graph and model pose, not experimentally validated

$$$$
Ga84128b7de0d
     RDKit          3D

 16 17  0  0  0  0  0  0  0  0999 V2000
    6.1914   -1.5144   19.8019 C   0  0  0  0  0  0  0  0  0  0  0  0
    6.9700   -2.1172   18.8187 C   0  0  0  0  0  0  0  0  0  0  0  0
    7.6243   -1.2877   17.9308 C   0  0  0  0  0  0  0  0  0  0  0  0
    7.5425    0.0606   17.9643 N   0  0  0  0  0  0  0  0  0  0  0  0
    6.7556    0.6266   18.9123 C   0  0  0  0  0  0  0  0  0  0  0  0
    6.0553   -0.1282   19.8432 C   0  0  0  0  0  0  0  0  0  0  0  0
    5.4376   -2.3286   20.7770 C   0  0  0  0  0  0  0  0  0  0  0  0
    4.2247   -2.1508   20.8535 O   0  0  0  0  0  0  0  0  0  0  0  0
    6.1248   -3.2429   21.5630 N   0  0  0  0  0  0  0  0  0  0  0  0
    7.5836   -3.3281   21.7022 C   0  0  0  0  0  0  0  0  0  0  0  0
    7.9716   -3.8462   23.0911 C   0  0  0  0  0  0  0  0  0  0  0  0
    7.4268   -5.1392   23.3868 O   0  0  0  0  0  0  0  0  0  0  0  0
    6.1527   -5.3930   22.7748 C   0  0  0  0  0  0  0  0  0  0  0  0
    5.3597   -4.1263   22.4440 C   0  0  0  0  0  0  0  0  0  0  0  0
    6.6367    2.1278   18.8966 C   0  0  0  0  0  0  0  0  0  0  0  0
    5.4495    2.5866   18.0646 C   0  0  0  0  0  0  0  0  0  0  0  0
  1  2  1  0
  2  3  2  0
  3  4  1  0
  4  5  2  0
  5  6  1  0
  6  1  2  0
  7  8  2  0
  7  9  1  0
  9 10  1  0
 10 11  1  0
 11 12  1  0
 12 13  1  0
 13 14  1  0
 14  9  1  0
  1  7  1  0
 15 16  1  0
  5 15  1  0
M  END
>  <canonical_smiles>  (96) 
CCc1cc(C(=O)N2CCOCC2)ccn1

>  <geometry_score>  (96) 
13.417574809264153

>  <evidence>  (96) 
generated graph and model pose, not experimentally validated

$$$$
G4d8d42c8e510
     RDKit          3D

 17 18  0  0  0  0  0  0  0  0999 V2000
    6.8723    0.5243   20.0569 C   0  0  0  0  0  0  0  0  0  0  0  0
    6.4573   -0.7095   20.5859 C   0  0  0  0  0  0  0  0  0  0  0  0
    6.1812   -1.8171   19.7685 C   0  0  0  0  0  0  0  0  0  0  0  0
    6.3339   -1.6258   18.3853 C   0  0  0  0  0  0  0  0  0  0  0  0
    6.7293   -0.3976   17.8412 C   0  0  0  0  0  0  0  0  0  0  0  0
    6.9957    0.6823   18.6759 C   0  0  0  0  0  0  0  0  0  0  0  0
    7.1445    1.6388   21.0053 C   0  0  0  0  0  0  0  0  0  0  0  0
    6.5517    1.6943   22.0769 O   0  0  0  0  0  0  0  0  0  0  0  0
    8.1043    2.5511   20.6180 N   0  0  0  0  0  0  0  0  0  0  0  0
    8.4580    3.6814   21.4501 C   0  0  0  0  0  0  0  0  0  0  0  0
    9.5153    3.3120   22.4746 C   0  0  0  0  0  0  0  0  0  0  0  0
    5.7784   -3.0298   20.2965 N   0  0  0  0  0  0  0  0  0  0  0  0
    5.8996   -4.2919   19.5507 C   0  0  0  0  0  0  0  0  0  0  0  0
    6.0166   -5.4735   20.5286 C   0  0  0  0  0  0  0  0  0  0  0  0
    4.9021   -5.6078   21.4206 O   0  0  0  0  0  0  0  0  0  0  0  0
    4.2614   -4.3594   21.7195 C   0  0  0  0  0  0  0  0  0  0  0  0
    5.1929   -3.1373   21.6440 C   0  0  0  0  0  0  0  0  0  0  0  0
  1  2  2  0
  2  3  1  0
  3  4  2  0
  4  5  1  0
  5  6  2  0
  6  1  1  0
  7  8  2  0
  7  9  1  0
  9 10  1  0
 10 11  1  0
  1  7  1  0
 12 13  1  0
 13 14  1  0
 14 15  1  0
 15 16  1  0
 16 17  1  0
 17 12  1  0
  3 12  1  0
M  END
>  <canonical_smiles>  (97) 
CCNC(=O)c1cccc(N2CCOCC2)c1

>  <geometry_score>  (97) 
16.8219584052035

>  <evidence>  (97) 
generated graph and model pose, not experimentally validated

$$$$
G4bc4ede6b610
     RDKit          3D

 14 14  0  0  0  0  0  0  0  0999 V2000
   10.1661   -0.4222   20.6182 C   0  0  0  0  0  0  0  0  0  0  0  0
    9.7904    0.0899   19.3720 C   0  0  0  0  0  0  0  0  0  0  0  0
    8.4397    0.2007   19.0153 C   0  0  0  0  0  0  0  0  0  0  0  0
    7.4405   -0.1994   19.8999 C   0  0  0  0  0  0  0  0  0  0  0  0
    7.8161   -0.7115   21.1461 C   0  0  0  0  0  0  0  0  0  0  0  0
    9.1669   -0.8223   21.5028 C   0  0  0  0  0  0  0  0  0  0  0  0
   11.5456   -0.4990   20.8958 N   0  0  0  0  0  0  0  0  0  0  0  0
   12.1480   -0.9661   22.0503 C   0  0  0  0  0  0  0  0  0  0  0  0
   11.5920   -1.4023   23.0514 O   0  0  0  0  0  0  0  0  0  0  0  0
   13.6519   -0.8886   21.9689 C   0  0  0  0  0  0  0  0  0  0  0  0
    6.0609   -0.1226   19.6223 N   0  0  0  0  0  0  0  0  0  0  0  0
    5.4586    0.3445   18.4678 C   0  0  0  0  0  0  0  0  0  0  0  0
    6.0145    0.7807   17.4667 O   0  0  0  0  0  0  0  0  0  0  0  0
    3.9546    0.2670   18.5491 C   0  0  0  0  0  0  0  0  0  0  0  0
  1  2  1  0
  2  3  2  0
  3  4  1  0
  4  5  2  0
  5  6  1  0
  6  1  2  0
  7  8  1  0
  8  9  2  0
  8 10  1  0
  1  7  1  0
 11 12  1  0
 12 13  2  0
 12 14  1  0
  4 11  1  0
M  END
>  <canonical_smiles>  (98) 
CC(=O)Nc1ccc(NC(C)=O)cc1

>  <geometry_score>  (98) 
13.522429141289676

>  <evidence>  (98) 
generated graph and model pose, not experimentally validated

$$$$
G5927bdc93daa
     RDKit          3D

 14 15  0  0  0  0  0  0  0  0999 V2000
    9.0125    0.2909   21.0799 C   0  0  0  0  0  0  0  0  0  0  0  0
   10.2606   -0.2537   20.7699 C   0  0  0  0  0  0  0  0  0  0  0  0
   11.2637   -0.3578   21.7435 C   0  0  0  0  0  0  0  0  0  0  0  0
   11.0130    0.0886   23.0405 C   0  0  0  0  0  0  0  0  0  0  0  0
    9.7697    0.6347   23.3605 C   0  0  0  0  0  0  0  0  0  0  0  0
    8.7758    0.7352   22.3857 C   0  0  0  0  0  0  0  0  0  0  0  0
    7.9584    0.4283   20.1546 N   0  0  0  0  0  0  0  0  0  0  0  0
    7.9517    0.0634   18.8272 C   0  0  0  0  0  0  0  0  0  0  0  0
    8.8398   -0.4719   18.1837 O   0  0  0  0  0  0  0  0  0  0  0  0
    6.6531    0.3593   18.1569 C   0  0  0  0  0  0  0  0  0  0  0  0
    6.0690    1.7540   18.1529 C   0  0  0  0  0  0  0  0  0  0  0  0
    6.6408    1.1831   16.8895 C   0  0  0  0  0  0  0  0  0  0  0  0
   12.4350   -0.9103   21.3003 O   0  0  0  0  0  0  0  0  0  0  0  0
   13.4872   -1.0425   22.2465 C   0  0  0  0  0  0  0  0  0  0  0  0
  1  2  2  0
  2  3  1  0
  3  4  2  0
  4  5  1  0
  5  6  2  0
  6  1  1  0
  7  8  1  0
  8  9  2  0
  8 10  1  0
 10 11  1  0
 11 12  1  0
 12 10  1  0
  1  7  1  0
 13 14  1  0
  3 13  1  0
M  END
>  <canonical_smiles>  (99) 
COc1cccc(NC(=O)C2CC2)c1

>  <geometry_score>  (99) 
16.912033486780683

>  <evidence>  (99) 
generated graph and model pose, not experimentally validated

$$$$
Gab243871775b
     RDKit          3D

 18 19  0  0  0  0  0  0  0  0999 V2000
    6.8957    0.2990   19.1746 C   0  0  0  0  0  0  0  0  0  0  0  0
    6.6631    1.6263   18.8152 C   0  0  0  0  0  0  0  0  0  0  0  0
    5.3571    2.0595   18.5606 C   0  0  0  0  0  0  0  0  0  0  0  0
    4.2835    1.1679   18.6454 C   0  0  0  0  0  0  0  0  0  0  0  0
    4.5354   -0.1709   18.9816 C   0  0  0  0  0  0  0  0  0  0  0  0
    5.8369   -0.6091   19.2424 C   0  0  0  0  0  0  0  0  0  0  0  0
    8.2806   -0.1484   19.4243 C   0  0  0  0  0  0  0  0  0  0  0  0
    9.0789   -0.0696   18.4948 O   0  0  0  0  0  0  0  0  0  0  0  0
    8.6065   -0.6347   20.6817 N   0  0  0  0  0  0  0  0  0  0  0  0
    7.7640   -0.5730   21.8821 C   0  0  0  0  0  0  0  0  0  0  0  0
    8.5463    0.0177   23.0624 C   0  0  0  0  0  0  0  0  0  0  0  0
    9.7771   -0.6886   23.2799 O   0  0  0  0  0  0  0  0  0  0  0  0
   10.6143   -0.6115   22.1133 C   0  0  0  0  0  0  0  0  0  0  0  0
    9.9212   -1.2399   20.9019 C   0  0  0  0  0  0  0  0  0  0  0  0
    2.9420    1.5258   18.3998 N   0  0  0  0  0  0  0  0  0  0  0  0
    2.4483    2.7811   18.0904 C   0  0  0  0  0  0  0  0  0  0  0  0
    3.0836    3.8250   18.0040 O   0  0  0  0  0  0  0  0  0  0  0  0
    0.9559    2.7607   17.8740 C   0  0  0  0  0  0  0  0  0  0  0  0
  1  2  1  0
  2  3  2  0
  3  4  1  0
  4  5  2  0
  5  6  1  0
  6  1  2  0
  7  8  2  0
  7  9  1  0
  9 10  1  0
 10 11  1  0
 11 12  1  0
 12 13  1  0
 13 14  1  0
 14  9  1  0
  1  7  1  0
 15 16  1  0
 16 17  2  0
 16 18  1  0
  4 15  1  0
M  END
>  <canonical_smiles>  (100) 
CC(=O)Nc1ccc(C(=O)N2CCOCC2)cc1

>  <geometry_score>  (100) 
13.077290830091473

>  <evidence>  (100) 
generated graph and model pose, not experimentally validated

$$$$
